19
Iteration:  1511charge 0 multiplicity 1
 C         1.451140         0.228397        -0.393626
 C         0.027207         0.155574        -0.136992
 C        -1.064974        -0.018675         0.246285
 C        -2.536658        -0.351807         0.436648
 O        -3.140758         0.999277         0.519065
 C        -3.003905        -1.061301        -0.815461
 O        -4.421768        -1.343331        -0.813537
 C        -3.489032        -2.485982        -0.895397
 C        -3.550405        -3.263267        -2.197986
 H         2.003040        -0.334129         0.289305
 H         1.929899        -0.202941        -1.339178
 H         1.809804         1.217946        -0.364910
 H        -2.612274        -0.790129         1.520623
 H        -3.589617         1.265283        -0.263328
 H        -2.562443        -0.474196        -1.694138
 H        -3.345815        -2.994854         0.072695
 H        -4.397878        -4.000793        -2.104401
 H        -3.711113        -2.630597        -3.118429
 H        -2.628626        -3.857321        -2.487664
