19
Iteration:  2798
 C         1.464715         0.248206        -0.293536
 C         0.153777         0.100175         0.022844
 C        -1.029384        -0.098586         0.105913
 C        -2.447465        -0.395829         0.361116
 O        -3.087145         0.770483         0.864209
 C        -3.226176        -0.975341        -0.911512
 O        -4.628822        -1.427254        -0.767740
 C        -3.409372        -2.353968        -1.104067
 C        -3.513346        -3.027508        -2.419568
 H         1.660858         1.105454        -1.057033
 H         2.141607         0.551866         0.490476
 H         1.742966        -0.645633        -0.746600
 H        -2.680441        -1.159640         1.190011
 H        -2.642017         1.612868         0.710587
 H        -3.093105        -0.370790        -1.860951
 H        -3.044876        -3.014719        -0.380173
 H        -4.423412        -3.700126        -2.499355
 H        -3.726421        -2.163491        -3.101336
 H        -2.503692        -3.559461        -2.693709
