19
Iteration:  4151charge 0 multiplicity 1
 C         1.637360         0.177868        -0.094589
 C         0.122107         0.031508        -0.137017
 C        -1.096363        -0.122273        -0.015847
 C        -2.409079        -0.495322         0.384942
 O        -3.083397         0.557078         1.035949
 C        -3.262629        -0.844825        -0.889693
 O        -4.582661        -1.503917        -0.680835
 C        -3.354256        -2.269819        -1.233532
 C        -3.693819        -2.657991        -2.682283
 H         2.101570        -0.737613         0.109734
 H         1.790623         0.715334        -1.061701
 H         1.938284         0.987603         0.713738
 H        -2.349452        -1.501120         0.972602
 H        -2.453646         1.185085         1.426860
 H        -3.434175         0.053987        -1.557854
 H        -2.767850        -2.774632        -0.479159
 H        -4.097720        -3.741811        -2.679433
 H        -4.614066        -2.030555        -2.938287
 H        -2.885346        -2.732543        -3.445664
