19
Iteration:   525
 C         1.379804        -0.177997        -0.179397
 C        -0.086172        -0.076919        -0.116504
 C        -1.248219         0.012836         0.148324
 C        -2.722915         0.006444         0.167246
 O        -3.325008         1.241055         0.151113
 C        -3.279822        -0.859700        -0.968275
 O        -4.447453        -1.637440        -0.660794
 C        -3.099112        -2.260386        -0.765447
 C        -2.957291        -3.352516        -1.891019
 H         1.914227         0.118135         0.726903
 H         1.711534        -1.266768        -0.243222
 H         1.698042         0.495321        -0.935834
 H        -3.146050        -0.499873         1.068640
 H        -2.634860         1.982350         0.082741
 H        -3.344859        -0.444752        -2.012843
 H        -2.907591        -2.529655         0.310925
 H        -3.459183        -4.340919        -1.691404
 H        -3.459387        -3.005818        -2.800912
 H        -1.966510        -3.537495        -2.383098
