19
Iteration:  4394charge 0 multiplicity 1
 C         1.412993        -0.093262        -0.404211
 C        -0.066929        -0.059737        -0.252467
 C        -1.186270        -0.157707         0.111526
 C        -2.522290        -0.435899         0.541166
 O        -3.180973         0.652083         1.181671
 C        -3.305468        -0.807447        -0.758816
 O        -4.459319        -1.551213        -0.560235
 C        -3.168383        -2.215882        -1.290621
 C        -3.343648        -2.464949        -2.814126
 H         1.681594         0.914521        -0.127242
 H         1.933654        -0.806620         0.227451
 H         1.645210        -0.113554        -1.515029
 H        -2.405169        -1.307366         1.097953
 H        -2.473283         1.245448         1.518606
 H        -3.332556        -0.036034        -1.483375
 H        -2.672950        -2.919026        -0.753522
 H        -3.875886        -3.370184        -2.976814
 H        -3.804197        -1.776435        -3.465227
 H        -2.407743        -2.520514        -3.311778
