19
Iteration:  2437
 C         1.397029         0.012040        -0.517407
 C        -0.034418        -0.079104        -0.190934
 C        -1.202698        -0.228842         0.096569
 C        -2.621825        -0.219340         0.470365
 O        -3.162176         1.002374         0.768550
 C        -3.334185        -0.840790        -0.704704
 O        -4.561981        -1.593632        -0.705993
 C        -3.320877        -2.295072        -0.982370
 C        -3.000555        -2.936993        -2.350460
 H         1.841870        -0.868077        -0.981754
 H         1.680877         0.851182        -1.064718
 H         1.937215         0.070739         0.349980
 H        -2.815308        -0.708728         1.482095
 H        -2.964688         1.569132         0.024260
 H        -3.144346        -0.122301        -1.501647
 H        -2.886091        -2.970945        -0.210311
 H        -3.564414        -3.812050        -2.520838
 H        -3.226120        -2.223930        -3.088260
 H        -1.983462        -3.152766        -2.611997
