19
Iteration:   765
 C         1.535833         0.406986         0.067952
 C         0.156200         0.039862         0.081700
 C        -1.031493        -0.142179        -0.070352
 C        -2.519547        -0.207579         0.172942
 O        -3.107021         1.111869         0.186919
 C        -3.252409        -0.974764        -0.951442
 O        -4.543544        -1.583663        -0.714348
 C        -3.458049        -2.429146        -0.847900
 C        -3.506573        -3.371921        -1.993497
 H         1.943176         0.404444        -0.938988
 H         1.760950         1.452409         0.496598
 H         2.205910        -0.303987         0.519488
 H        -2.827077        -0.700720         1.072242
 H        -2.919117         1.226687        -0.794521
 H        -3.296075        -0.586860        -2.001519
 H        -3.340712        -2.813446         0.222358
 H        -4.236946        -4.186034        -1.870337
 H        -3.544941        -2.845495        -2.933312
 H        -2.532203        -3.830973        -2.136692
