19
Iteration:  2217charge 0 multiplicity 1
 C         1.509499         0.317596        -0.127953
 C         0.143349         0.055208        -0.016373
 C        -1.030998        -0.252726         0.005103
 C        -2.598499        -0.251516         0.186951
 O        -3.006103         1.052860         0.582974
 C        -3.377481        -0.859134        -0.936447
 O        -4.506764        -1.736689        -0.521930
 C        -3.277020        -2.351091        -1.056171
 C        -3.615685        -3.105770        -2.337013
 H         1.715121         1.484140        -0.163597
 H         2.257073        -0.089636         0.531486
 H         1.810145        -0.011825        -1.127906
 H        -2.712179        -0.941521         0.947117
 H        -2.256703         1.454353         1.004719
 H        -3.650864        -0.121036        -1.744011
 H        -2.796859        -3.069565        -0.274626
 H        -4.250591        -3.956895        -2.084386
 H        -4.249254        -2.656917        -3.142136
 H        -2.803427        -3.665633        -2.818937
