19
Iteration:   465
 C         1.465371        -0.197174        -0.092529
 C        -0.029581        -0.061875        -0.074298
 C        -1.211841         0.036957         0.047431
 C        -2.750901         0.023407         0.214796
 O        -3.253195         1.400740         0.057376
 C        -3.320726        -0.945374        -0.845476
 O        -4.499691        -1.822420        -0.570498
 C        -3.166800        -2.372585        -0.779231
 C        -3.034302        -3.207040        -2.023928
 H         1.778445        -0.439479         0.931170
 H         1.923733        -0.617104        -0.932712
 H         1.849308         0.863247        -0.316652
 H        -2.962584        -0.411467         1.203977
 H        -3.093780         1.630345        -0.913384
 H        -3.359615        -0.547365        -1.835035
 H        -2.813018        -2.739249         0.189985
 H        -3.298781        -4.222318        -1.800714
 H        -3.543797        -2.751152        -2.879639
 H        -1.967582        -3.209359        -2.088174
