19
Iteration:  3812
 C         1.299098        -0.035251        -0.658503
 C        -0.042612        -0.217119        -0.168722
 C        -1.133087        -0.265675         0.339229
 C        -2.590375        -0.313816         0.522473
 O        -3.299960         0.906473         1.082886
 C        -3.187754        -0.916436        -0.741647
 O        -4.355724        -1.552366        -0.629684
 C        -3.250961        -2.327093        -1.206061
 C        -3.193514        -2.509009        -2.671310
 H         1.572582         1.069106        -0.391349
 H         2.096054        -0.571924        -0.082805
 H         1.472029        -0.300419        -1.772269
 H        -2.917344        -1.116745         1.286968
 H        -3.126242         1.644704         0.438672
 H        -2.989122        -0.280858        -1.587201
 H        -3.002110        -3.136681        -0.551691
 H        -4.040911        -3.157154        -2.851848
 H        -3.192601        -1.598259        -3.093885
 H        -2.302022        -3.096403        -2.885455
