19
Iteration:  4259charge 0 multiplicity 1
 C         1.345589         0.257339        -0.490895
 C         0.054439        -0.093586        -0.019473
 C        -1.066094        -0.441365         0.247668
 C        -2.528210        -0.550077         0.668830
 O        -3.104068         0.749130         0.973262
 C        -3.152139        -0.890041        -0.723595
 O        -4.450942        -1.390464        -0.665646
 C        -3.457394        -2.308060        -1.322332
 C        -3.444686        -2.624175        -2.826567
 H         2.161290         0.279183         0.265636
 H         1.862316        -0.368111        -1.257345
 H         1.312578         1.374238        -0.751080
 H        -2.677768        -1.328802         1.379232
 H        -2.466351         1.170086         1.563373
 H        -2.948813        -0.063496        -1.487866
 H        -3.135987        -3.184605        -0.765440
 H        -4.406249        -3.064433        -3.210178
 H        -3.472147        -1.576767        -3.250996
 H        -2.477648        -3.072982        -3.073470
