19
Iteration:  4614
 C         1.406860         0.022195        -0.327106
 C         0.053565        -0.228287        -0.126313
 C        -1.124110        -0.283756         0.078211
 C        -2.525656        -0.374817         0.545363
 O        -3.130175         0.792912         1.099423
 C        -3.388120        -0.794739        -0.659353
 O        -4.318333        -1.924950        -0.452715
 C        -3.190140        -2.094651        -1.472139
 C        -3.523779        -2.285995        -2.917076
 H         1.801776        -0.152013        -1.320495
 H         1.705130         1.004942         0.054946
 H         1.864143        -0.803121         0.285496
 H        -2.606482        -1.203257         1.391103
 H        -2.648712         1.541357         0.692890
 H        -3.876704         0.123650        -1.110339
 H        -2.719157        -2.904961        -1.012133
 H        -3.978851        -3.208714        -3.241154
 H        -4.281893        -1.615433        -3.163174
 H        -2.687559        -2.096831        -3.637796
