19
Iteration:    66
 C         1.543675         0.194191        -0.063264
 C         0.062812         0.162897         0.048567
 C        -1.183020        -0.013794         0.084800
 C        -2.627315        -0.157722         0.119711
 O        -3.217285         1.117811         0.018808
 C        -3.110082        -1.028300        -1.013053
 O        -4.499357        -1.399621        -0.811990
 C        -3.451474        -2.479596        -0.715037
 C        -3.299196        -3.537830        -1.719929
 H         2.128870         0.646149         0.779132
 H         1.867988        -0.798356        -0.513976
 H         1.834970         0.943944        -0.846972
 H        -3.012678        -0.652251         0.990321
 H        -2.534194         1.747722        -0.382157
 H        -2.926629        -0.758013        -2.036901
 H        -3.345711        -2.869897         0.232436
 H        -4.142445        -4.185094        -1.510309
 H        -3.394463        -3.086276        -2.697528
 H        -2.350180        -4.025834        -1.525345
