19
Iteration:  4372charge 0 multiplicity 1
 C         1.476104         0.006258        -0.492816
 C         0.036142        -0.037002        -0.222811
 C        -1.132178        -0.284442         0.183049
 C        -2.567312        -0.436385         0.481860
 O        -3.206480         0.676490         1.285923
 C        -3.249719        -0.684745        -0.844644
 O        -4.477840        -1.642876        -0.684425
 C        -3.356424        -2.176825        -1.239935
 C        -3.327512        -2.534885        -2.716922
 H         1.999024         0.788360         0.036186
 H         1.691291        -0.923041         0.021806
 H         1.729353         0.035326        -1.606584
 H        -2.736427        -1.348627         0.984128
 H        -2.444384         1.189707         1.576816
 H        -3.371633         0.079444        -1.562404
 H        -2.832064        -2.815168        -0.626629
 H        -3.767654        -3.443680        -3.054800
 H        -3.688722        -1.802873        -3.448656
 H        -2.295447        -2.416620        -2.975002
