19
Iteration:  4373charge 0 multiplicity 1
 C         1.468432         0.004188        -0.488859
 C         0.035873        -0.039346        -0.229577
 C        -1.132648        -0.283714         0.178206
 C        -2.569643        -0.428746         0.472774
 O        -3.208382         0.676331         1.288283
 C        -3.246571        -0.697965        -0.842778
 O        -4.466775        -1.641666        -0.675420
 C        -3.358810        -2.165417        -1.248247
 C        -3.327217        -2.533284        -2.723682
 H         2.032069         0.800857         0.032223
 H         1.665011        -0.915423         0.037091
 H         1.730669         0.022607        -1.579675
 H        -2.777919        -1.343901         1.008422
 H        -2.444401         1.190919         1.586108
 H        -3.364534         0.050970        -1.530287
 H        -2.856767        -2.853280        -0.617489
 H        -3.759927        -3.451238        -3.042226
 H        -3.720426        -1.776340        -3.394855
 H        -2.250466        -2.443612        -2.978053
