19
Iteration:  1801charge 0 multiplicity 1
 C         1.456005        -0.082286        -0.219792
 C         0.046103        -0.276659        -0.127274
 C        -1.208342        -0.048304        -0.101414
 C        -2.620586        -0.057587         0.318027
 O        -3.178467         1.239308         0.541065
 C        -3.489077        -0.805290        -0.779013
 O        -4.372076        -1.865189        -0.356525
 C        -3.135404        -2.272192        -1.033206
 C        -3.250300        -2.980472        -2.387962
 H         1.664796         0.265069        -1.262417
 H         1.804208         0.771851         0.258594
 H         1.982931        -0.985098         0.101520
 H        -2.820388        -0.616481         1.197156
 H        -3.513619         1.507523        -0.321453
 H        -3.920335        -0.247312        -1.605282
 H        -2.271805        -2.778919        -0.369360
 H        -3.454541        -4.062172        -2.330014
 H        -4.014758        -2.467881        -2.928196
 H        -2.334996        -2.982990        -2.992431
