19
Iteration:  1738charge 0 multiplicity 1
 C         1.304063        -0.080273        -0.278750
 C        -0.058774         0.097067        -0.135944
 C        -1.210025        -0.127872         0.180393
 C        -2.625898        -0.147473         0.398574
 O        -3.111124         1.216779         0.345689
 C        -3.225619        -0.955199        -0.808181
 O        -4.309839        -1.813215        -0.373266
 C        -3.142321        -2.366296        -1.049616
 C        -3.424100        -2.963535        -2.405388
 H         1.728410         0.677893        -0.999036
 H         1.859228        -0.032895         0.709067
 H         1.708203        -0.945359        -0.845553
 H        -2.998762        -0.782804         1.303168
 H        -2.323083         1.800634         0.456298
 H        -3.567598        -0.305614        -1.662573
 H        -2.631995        -2.970257        -0.253367
 H        -3.958148        -3.916461        -2.396959
 H        -4.047891        -2.213659        -2.916955
 H        -2.546069        -3.127538        -3.040171
