19
Iteration:  2777charge 0 multiplicity 1
 C         1.595613         0.289944        -0.263003
 C         0.113441         0.021338        -0.152534
 C        -1.067114        -0.202313         0.108062
 C        -2.525566        -0.427626         0.484839
 O        -3.194098         0.879758         0.774888
 C        -3.183039        -0.953029        -0.793512
 O        -4.480463        -1.450011        -0.690903
 C        -3.513518        -2.389374        -1.067294
 C        -3.491776        -2.976368        -2.552053
 H         1.754915         1.377730        -0.695562
 H         2.196180         0.458985         0.631996
 H         2.062059        -0.407560        -0.917757
 H        -2.745943        -1.197095         1.225859
 H        -2.551537         1.534699         0.431749
 H        -3.169410        -0.228689        -1.653923
 H        -3.345887        -3.189420        -0.378539
 H        -4.344646        -3.697334        -2.534476
 H        -3.773255        -2.175135        -3.266061
 H        -2.537193        -3.589564        -2.632683
