19
Iteration:  2381charge 0 multiplicity 1
 C         1.387025        -0.012635        -0.492188
 C        -0.045633        -0.032360        -0.100414
 C        -1.182462        -0.126118         0.144199
 C        -2.575147        -0.232567         0.409201
 O        -3.313926         1.002915         0.811477
 C        -3.192181        -0.784716        -0.866711
 O        -4.401299        -1.564558        -0.679077
 C        -3.216967        -2.291632        -1.108142
 C        -3.236971        -3.077188        -2.309586
 H         1.400657        -0.456369        -1.516644
 H         1.805386         0.935478        -0.548681
 H         1.923856        -0.626792         0.156932
 H        -2.757191        -0.970241         1.301062
 H        -2.629862         1.707400         0.731585
 H        -3.095231        -0.052660        -1.671166
 H        -2.607036        -2.763618        -0.273526
 H        -3.906082        -3.892209        -2.150154
 H        -3.769689        -2.571723        -3.093920
 H        -2.288729        -3.515132        -2.443057
