19
Iteration:  1295charge 0 multiplicity 1
 C         1.533224         0.162486        -0.160993
 C         0.098492         0.043631        -0.036150
 C        -1.124880        -0.091332         0.081187
 C        -2.568330        -0.228566         0.254492
 O        -3.152615         1.145029         0.228455
 C        -3.214414        -0.992431        -0.893605
 O        -4.435372        -1.555411        -0.481781
 C        -3.341188        -2.446672        -0.953523
 C        -3.484122        -3.181552        -2.213769
 H         1.732068         0.508613        -1.249250
 H         1.919263         1.041099         0.465229
 H         2.086533        -0.781519         0.127367
 H        -2.554523        -0.670975         1.267339
 H        -3.967573         1.252744         0.716576
 H        -3.161064        -0.399750        -1.841128
 H        -2.922569        -3.140172        -0.144421
 H        -4.208717        -3.984861        -1.958843
 H        -3.820798        -2.563461        -3.063807
 H        -2.582937        -3.756838        -2.485546
