19
Iteration:  2817
 C         1.556961         0.227910        -0.379725
 C         0.104833         0.165761         0.127601
 C        -1.093434        -0.157459         0.102562
 C        -2.570502        -0.402934         0.239110
 O        -3.105803         0.743902         0.976075
 C        -3.187100        -0.826027        -0.992229
 O        -4.466327        -1.460980        -0.782003
 C        -3.484897        -2.318041        -1.079969
 C        -3.551678        -3.066248        -2.384384
 H         1.780875         0.876754        -1.289916
 H         2.167616         0.700299         0.406223
 H         1.945369        -0.801452        -0.556760
 H        -2.642155        -1.207832         1.089978
 H        -2.616657         1.561139         0.744266
 H        -3.070329        -0.210443        -1.914800
 H        -3.267739        -3.022380        -0.194437
 H        -4.347028        -3.896927        -2.444084
 H        -3.735005        -2.435134        -3.245490
 H        -2.462220        -3.449643        -2.564445
