19
Iteration:  2993charge 0 multiplicity 1
 C         1.409791         0.234887        -0.412108
 C         0.034832        -0.250252        -0.110640
 C        -1.148729        -0.325511         0.242754
 C        -2.579024        -0.388862         0.439772
 O        -3.152758         0.960313         0.772950
 C        -3.237455        -0.806711        -0.842614
 O        -4.391052        -1.616180        -0.611831
 C        -3.247305        -2.242768        -1.157273
 C        -3.447490        -2.811437        -2.520451
 H         2.220136        -0.634549        -0.479700
 H         1.429568         0.932797        -1.268185
 H         1.774889         0.869687         0.520527
 H        -2.906810        -0.984300         1.243248
 H        -2.506465         1.634343         1.028602
 H        -3.347225        -0.009867        -1.677960
 H        -2.886883        -3.060533        -0.467026
 H        -4.117773        -3.632730        -2.343049
 H        -3.909146        -2.118956        -3.161345
 H        -2.571444        -3.307652        -2.918615
