19
Iteration:  4478charge 0 multiplicity 1
 C         1.374442        -0.003561        -0.400443
 C         0.032893        -0.174918         0.017088
 C        -1.161971        -0.193375         0.197910
 C        -2.485066        -0.465847         0.517112
 O        -3.082571         0.803154         0.895161
 C        -3.373220        -0.803530        -0.661338
 O        -4.357753        -1.882435        -0.509931
 C        -3.186715        -2.061119        -1.432801
 C        -3.521111        -2.326040        -2.887641
 H         1.647110         0.924111        -0.898050
 H         2.057001        -0.164730         0.473251
 H         1.645390        -0.887838        -1.060774
 H        -2.485206        -1.218436         1.401457
 H        -2.804160         1.032474         1.792547
 H        -3.859170         0.160674        -1.079381
 H        -2.310368        -2.724911        -0.973970
 H        -3.923307        -3.393700        -2.786120
 H        -4.515343        -1.698171        -2.916519
 H        -2.660200        -2.320204        -3.583019
