19
Iteration:  2866
 C         1.541402         0.283314        -0.304698
 C         0.081185        -0.105827        -0.285497
 C        -1.071851        -0.153183         0.147006
 C        -2.542241        -0.353527         0.530916
 O        -3.238941         0.722372         1.000100
 C        -3.113790        -0.897111        -0.954564
 O        -4.470023        -1.305459        -0.833445
 C        -3.415663        -2.324208        -1.051276
 C        -3.501895        -3.017259        -2.400922
 H         1.919584         0.363645        -1.367733
 H         1.761688         1.298649         0.097360
 H         2.053987        -0.599306         0.138964
 H        -2.635067        -1.266054         1.242343
 H        -3.166796         1.332372         0.237764
 H        -2.996785        -0.240178        -1.818403
 H        -2.929163        -2.940233        -0.298823
 H        -4.126637        -3.926828        -2.342671
 H        -3.940910        -2.425761        -3.306911
 H        -2.433694        -3.335648        -2.688107
