19
Iteration:  3273
 C         1.417517         0.031085        -0.448873
 C         0.069936        -0.038263        -0.135999
 C        -1.111461        -0.248212         0.171394
 C        -2.642429        -0.358354         0.431025
 O        -3.024265         1.029465         0.914148
 C        -3.522054        -0.793373        -0.715658
 O        -4.510606        -1.788013        -0.632761
 C        -3.240862        -2.172410        -1.249460
 C        -3.252121        -2.780077        -2.573348
 H         1.867765         1.074553        -0.780122
 H         1.908804        -0.352669         0.438893
 H         1.651636        -0.660306        -1.144070
 H        -2.892855        -1.158731         1.292260
 H        -2.359924         1.318039         1.548873
 H        -3.812188        -0.016685        -1.406603
 H        -2.821731        -2.937948        -0.551140
 H        -3.644277        -3.874184        -2.686055
 H        -3.840890        -2.062291        -3.186209
 H        -2.231825        -2.764862        -3.047534
