19
Iteration:  1498
 C         1.473806         0.236908        -0.372333
 C        -0.016680         0.184014        -0.180536
 C        -1.076720        -0.086944         0.267301
 C        -2.476756        -0.320001         0.439977
 O        -3.123467         1.000468         0.520385
 C        -3.004084        -1.034152        -0.792415
 O        -4.389350        -1.422128        -0.894245
 C        -3.431579        -2.460052        -0.877085
 C        -3.605803        -3.193977        -2.129142
 H         1.882414        -0.438230         0.360356
 H         1.566258         0.053561        -1.445979
 H         1.867364         1.231074        -0.194319
 H        -2.874765        -0.945794         1.270912
 H        -3.507032         0.912237        -0.431494
 H        -2.645643        -0.654667        -1.767518
 H        -3.510712        -3.040511        -0.041609
 H        -4.542130        -3.865228        -2.082843
 H        -3.832058        -2.496806        -2.932871
 H        -2.641093        -3.789474        -2.302058
