19
Iteration:  2705charge 0 multiplicity 1
 C         1.493362         0.300755        -0.278925
 C         0.105692         0.022187         0.110856
 C        -1.032034        -0.357336         0.156991
 C        -2.532091        -0.311654         0.338531
 O        -3.032925         1.010904         0.731246
 C        -3.343448        -0.927822        -0.836332
 O        -4.505963        -1.615173        -0.572961
 C        -3.383989        -2.373151        -1.201006
 C        -3.504679        -2.989814        -2.569323
 H         1.759532         1.213706        -0.012853
 H         2.356231        -0.317459         0.059725
 H         1.411982         0.208545        -1.422487
 H        -2.602146        -0.887801         1.317611
 H        -2.712335         1.683443         0.096560
 H        -3.322692        -0.182971        -1.596170
 H        -3.155277        -3.045781        -0.305568
 H        -4.160225        -3.839543        -2.513022
 H        -4.147430        -2.202831        -3.041792
 H        -2.543743        -3.209816        -3.029939
