19
Iteration:    17charge 0 multiplicity 1
 C         1.510380         0.151217        -0.037062
 C         0.035141         0.059057        -0.176369
 C        -1.157949         0.126871         0.149101
 C        -2.648104        -0.127673         0.243187
 O        -3.203359         1.393403         0.005996
 C        -3.138736        -1.084230        -0.898658
 O        -4.504920        -1.614891        -0.923937
 C        -3.303097        -2.513264        -0.660091
 C        -3.380698        -3.553473        -1.794933
 H         1.710195        -0.164050         0.987433
 H         2.061475        -0.417732        -0.801362
 H         1.919564         1.163157         0.046314
 H        -2.932380        -0.318265         1.328388
 H        -2.487904         1.715841        -0.519390
 H        -2.689508        -0.778069        -1.880893
 H        -3.078852        -2.919688         0.399685
 H        -4.144567        -4.267845        -1.448022
 H        -3.745450        -2.996619        -2.680549
 H        -2.399753        -4.042886        -1.956093
