19
Iteration:  1299charge 0 multiplicity 1
 C         1.523070         0.178453        -0.187012
 C         0.104440         0.020557         0.001934
 C        -1.088529        -0.073467         0.043291
 C        -2.568491        -0.221535         0.256161
 O        -3.137965         1.136325         0.247697
 C        -3.206384        -1.001176        -0.912946
 O        -4.439932        -1.547593        -0.484632
 C        -3.359066        -2.450750        -0.940896
 C        -3.473386        -3.182778        -2.218719
 H         1.695901         0.487737        -1.208068
 H         1.813835         0.946769         0.451899
 H         2.065435        -0.689058         0.238655
 H        -2.669035        -0.630934         1.316737
 H        -4.094213         1.047890         0.563369
 H        -3.255593        -0.335955        -1.775231
 H        -2.991643        -3.061027        -0.129194
 H        -4.193365        -3.953963        -1.812823
 H        -3.804895        -2.527778        -3.091086
 H        -2.598597        -3.809281        -2.554015
