19
Iteration:  1354
 C         1.582398         0.283063        -0.153871
 C         0.141875         0.103389        -0.159532
 C        -1.067867        -0.122375         0.068353
 C        -2.506586        -0.234807         0.223074
 O        -3.214431         0.984441         0.492978
 C        -3.193571        -0.959443        -0.961527
 O        -4.508636        -1.460265        -0.695537
 C        -3.470817        -2.423270        -0.884913
 C        -3.531065        -3.344880        -2.125993
 H         1.878137        -0.183665        -1.099729
 H         1.859504         1.300422        -0.091762
 H         2.107928        -0.281877         0.661987
 H        -2.630716        -0.612938         1.268689
 H        -2.563905         1.726888         0.216952
 H        -2.874666        -0.370443        -1.802281
 H        -3.136064        -2.802277         0.049738
 H        -4.217693        -4.239063        -1.957656
 H        -3.960373        -2.765926        -3.005921
 H        -2.460618        -3.657801        -2.353826
