19
Iteration:  1058charge 0 multiplicity 1
 C         1.339989        -0.190596        -0.396243
 C        -0.059763        -0.058449        -0.115877
 C        -1.200654         0.028355         0.295349
 C        -2.669134        -0.047753         0.312911
 O        -3.397972         1.159478         0.339415
 C        -3.132009        -0.905629        -0.858245
 O        -4.425391        -1.570939        -0.798532
 C        -3.218023        -2.353831        -0.780466
 C        -3.058430        -3.184817        -2.057214
 H         2.006861         0.013438         0.507841
 H         1.851410        -1.135784        -0.764650
 H         1.748426         0.539182        -1.180257
 H        -2.686354        -0.484165         1.324207
 H        -2.744466         1.924863         0.100178
 H        -2.864519        -0.512615        -1.822468
 H        -2.946843        -2.649415         0.237016
 H        -3.844780        -3.936177        -1.990779
 H        -3.379549        -2.770961        -3.007260
 H        -2.113942        -3.725132        -2.147590
