19
Iteration:  3874charge 0 multiplicity 1
 C         1.375153        -0.151067        -0.569947
 C         0.027562        -0.003063        -0.093571
 C        -1.141539        -0.136104         0.144383
 C        -2.552118        -0.362525         0.513931
 O        -3.268555         0.802719         1.266453
 C        -3.283127        -0.754964        -0.857612
 O        -4.454705        -1.601470        -0.693371
 C        -3.255479        -2.209276        -1.234736
 C        -3.188441        -2.691644        -2.631108
 H         1.549941         0.648106        -1.188192
 H         2.139608        -0.252731         0.186332
 H         1.505855        -0.996545        -1.300815
 H        -2.866887        -1.185385         1.086892
 H        -2.961213         1.694889         0.999243
 H        -3.373757        -0.047858        -1.682445
 H        -2.622581        -2.768994        -0.565358
 H        -3.799932        -3.586978        -2.793395
 H        -3.739288        -2.035495        -3.402964
 H        -2.156583        -2.873217        -3.015739
