19
Iteration:  4961
 C         1.519983         0.188894        -0.031998
 C         0.060784        -0.069020        -0.095396
 C        -1.137979        -0.092409        -0.034947
 C        -2.370885        -0.492321         0.316541
 O        -3.024793         0.377319         1.262720
 C        -3.240325        -0.778141        -0.879595
 O        -4.389143        -1.566948        -0.581246
 C        -3.408821        -2.198182        -1.386365
 C        -3.786595        -2.458954        -2.884353
 H         2.025024         0.476759         0.868212
 H         1.935404        -0.669624        -0.514956
 H         1.894334         0.828708        -0.889207
 H        -2.329495        -1.460751         0.831490
 H        -2.716005         1.298443         1.191238
 H        -3.319303         0.055091        -1.462111
 H        -2.749978        -2.952360        -0.855790
 H        -4.642630        -3.129445        -2.593207
 H        -4.240649        -1.608853        -3.322025
 H        -2.970395        -2.905422        -3.463636
