19
Iteration:  1578
 C         1.515777         0.179125        -0.359426
 C         0.103738         0.003978        -0.135010
 C        -1.142525        -0.106400         0.004912
 C        -2.530348        -0.268967         0.300838
 O        -3.182092         0.951611         0.692367
 C        -3.195880        -0.908083        -0.939844
 O        -4.503617        -1.436859        -0.779841
 C        -3.423748        -2.348601        -0.883976
 C        -3.358125        -3.212376        -2.085158
 H         1.918348         0.364494         0.614962
 H         1.973978        -0.823502        -0.645438
 H         1.697558         1.016952        -1.010822
 H        -2.679821        -1.042480         1.104306
 H        -3.409289         1.708526         0.098259
 H        -3.147514        -0.430302        -1.964412
 H        -3.231013        -2.853559         0.138175
 H        -4.044793        -4.078929        -2.068471
 H        -3.541970        -2.442512        -2.898071
 H        -2.299997        -3.596658        -2.078654
