19
Iteration:  2108
 C         1.597629         0.241658        -0.291738
 C         0.104095         0.101633        -0.000525
 C        -1.088482        -0.057094         0.127227
 C        -2.464357        -0.351533         0.225458
 O        -3.148951         0.923311         0.603167
 C        -3.231978        -0.905221        -0.879095
 O        -4.470950        -1.495736        -0.571049
 C        -3.482837        -2.393581        -0.994992
 C        -3.519432        -3.184844        -2.355325
 H         2.211487         0.476227         0.690630
 H         1.865486        -0.706138        -0.684041
 H         1.683139         1.065600        -1.006052
 H        -2.467312        -0.647626         1.359840
 H        -3.608711         1.249344        -0.208840
 H        -3.190655        -0.199325        -1.779912
 H        -3.151436        -3.139329        -0.330838
 H        -4.300667        -3.953847        -2.198529
 H        -3.633558        -2.513190        -3.229651
 H        -2.570414        -3.764536        -2.371180
