19
Iteration:  2677charge 0 multiplicity 1
 C         1.494933         0.238923        -0.277970
 C         0.105684        -0.017072         0.030156
 C        -1.061304        -0.146268         0.243453
 C        -2.595906        -0.301905         0.318073
 O        -2.974599         0.961729         0.732549
 C        -3.330101        -0.873684        -0.902992
 O        -4.502926        -1.734843        -0.575871
 C        -3.428016        -2.320486        -1.190103
 C        -3.510298        -2.974795        -2.526711
 H         1.945546         1.146135         0.416504
 H         2.209831        -0.576921        -0.158718
 H         1.611858         0.498802        -1.311434
 H        -2.719607        -0.966157         1.159325
 H        -2.402887         1.652754         0.369933
 H        -3.473222        -0.169450        -1.777906
 H        -3.002426        -2.990004        -0.453250
 H        -4.030938        -3.893929        -2.165230
 H        -4.237608        -2.516219        -3.188488
 H        -2.467554        -2.963686        -2.992782
