19
Iteration:  3822charge 0 multiplicity 1
 C         1.286195        -0.040423        -0.646874
 C        -0.060507        -0.170549        -0.196524
 C        -1.157299        -0.229271         0.363463
 C        -2.594187        -0.277448         0.534777
 O        -3.238583         0.831862         1.065838
 C        -3.137973        -0.851338        -0.717121
 O        -4.384781        -1.569218        -0.669026
 C        -3.246567        -2.328873        -1.108651
 C        -3.214731        -2.543263        -2.723206
 H         1.745100         0.938369        -0.653072
 H         1.829803        -0.660819         0.115199
 H         1.590257        -0.513553        -1.661604
 H        -2.876536        -1.053524         1.333431
 H        -3.348983         1.673173         0.575273
 H        -3.250910        -0.149614        -1.467182
 H        -2.860437        -3.087214        -0.482294
 H        -4.006317        -3.139605        -3.162111
 H        -3.159120        -1.700092        -3.316490
 H        -2.297395        -3.106687        -2.954204
