19
Iteration:  1310
 C         1.508010         0.236702        -0.197820
 C         0.127753        -0.062523         0.087073
 C        -1.100037        -0.034698        -0.029385
 C        -2.488164        -0.163717         0.229269
 O        -3.133784         1.083261         0.316830
 C        -3.167916        -0.944632        -0.875303
 O        -4.489787        -1.568549        -0.531591
 C        -3.364887        -2.404405        -0.891745
 C        -3.505978        -3.236617        -2.200786
 H         1.832866         0.301387        -1.228584
 H         1.772788         1.108383         0.312670
 H         2.167767        -0.594783         0.154364
 H        -2.902171        -0.805157         1.080089
 H        -4.052466         0.760656        -0.045064
 H        -3.311465        -0.427600        -1.819739
 H        -2.967136        -2.879014        -0.008485
 H        -4.348017        -4.008948        -2.220393
 H        -3.911664        -2.566541        -3.037973
 H        -2.506729        -3.678597        -2.485846
