19
Iteration:   199
 C         1.527459         0.305497        -0.130833
 C         0.152498        -0.032517         0.211913
 C        -1.093510         0.095513         0.114942
 C        -2.499968        -0.120306         0.125551
 O        -3.268939         1.079321         0.051770
 C        -3.194645        -1.042538        -1.027781
 O        -4.544094        -1.392989        -0.874692
 C        -3.533464        -2.436711        -0.709061
 C        -3.287614        -3.582737        -1.736882
 H         1.372479         1.161868        -0.879458
 H         2.380206         0.482271         0.577189
 H         1.918868        -0.660817        -0.730757
 H        -2.944040        -0.620281         0.946464
 H        -2.604831         1.834751        -0.118059
 H        -3.040992        -0.792452        -2.066989
 H        -3.346543        -2.774109         0.192593
 H        -4.115484        -4.266294        -1.802511
 H        -3.194892        -3.217462        -2.767928
 H        -2.382097        -4.232061        -1.653509
