19
Iteration:   288
 C         1.459018         0.162792        -0.006804
 C         0.067466         0.036368        -0.168702
 C        -1.135315        -0.035031         0.067348
 C        -2.603291        -0.077124         0.131317
 O        -3.194974         1.253708        -0.028510
 C        -3.213445        -1.068158        -0.857112
 O        -4.505148        -1.493972        -0.695177
 C        -3.383235        -2.517818        -0.706566
 C        -3.246317        -3.462204        -1.942179
 H         2.184462        -0.021205        -0.876747
 H         1.576487         1.263866         0.168762
 H         1.698610        -0.527326         0.966958
 H        -2.867365        -0.519627         1.132858
 H        -3.115165         1.855571         0.748828
 H        -2.937906        -0.608054        -1.865732
 H        -3.132490        -2.997436         0.240849
 H        -3.864373        -4.342355        -1.683275
 H        -3.625108        -2.857799        -2.765311
 H        -2.166821        -3.739238        -2.006538
