19
Iteration:   389charge 0 multiplicity 1
 C         1.447248        -0.037961        -0.030840
 C        -0.103069        -0.045648        -0.200837
 C        -1.244574         0.029919         0.208257
 C        -2.746441         0.063359         0.288900
 O        -3.178246         1.364804        -0.040938
 C        -3.245301        -0.981694        -0.862237
 O        -4.378426        -1.796965        -0.614724
 C        -3.090206        -2.420907        -0.827150
 C        -3.257605        -3.361576        -2.030430
 H         1.941530        -1.005960         0.167257
 H         1.939748         0.459707        -0.866912
 H         1.601520         0.781889         0.749785
 H        -3.239333        -0.237355         1.230970
 H        -2.515748         2.006832        -0.217291
 H        -3.197220        -0.493153        -1.808725
 H        -2.715976        -2.879868         0.115962
 H        -3.878565        -4.104911        -1.510323
 H        -3.895195        -2.811911        -2.733707
 H        -2.365008        -3.625493        -2.484084
