19
Iteration:  1199
 C         1.545475         0.000798        -0.231670
 C         0.030925        -0.153806        -0.043675
 C        -1.160896        -0.075310         0.061646
 C        -2.633259        -0.108185         0.225696
 O        -3.166496         1.206692         0.250615
 C        -3.387027        -0.834677        -0.924988
 O        -4.479355        -1.701168        -0.526401
 C        -3.228519        -2.332614        -0.879127
 C        -3.191776        -3.133835        -2.127155
 H         1.593277         1.091269        -0.481077
 H         1.936101        -0.004826         0.740817
 H         1.882847        -0.708393        -1.035864
 H        -2.994865        -0.601183         1.154625
 H        -3.823924         1.138215         0.955006
 H        -3.413001        -0.422447        -1.922719
 H        -2.947053        -2.747796         0.123313
 H        -3.738427        -4.139700        -2.104643
 H        -3.917558        -2.687960        -2.911337
 H        -2.046485        -3.231029        -2.364883
