19
Iteration:  4777
 C         1.337988         0.270146        -0.621624
 C         0.045896        -0.185001        -0.066912
 C        -1.069080        -0.476075         0.348185
 C        -2.523942        -0.604929         0.564054
 O        -3.032687         0.532604         1.326891
 C        -3.241695        -0.759629        -0.771172
 O        -4.550621        -1.403907        -0.917375
 C        -3.480484        -2.117138        -1.341396
 C        -3.303546        -2.469386        -2.693685
 H         1.998861        -0.539064        -0.416571
 H         1.360571         0.720524        -1.603767
 H         1.789408         1.020084         0.103447
 H        -2.660644        -1.473295         1.115691
 H        -2.303567         1.185671         1.310129
 H        -3.034918         0.092261        -1.455218
 H        -3.119443        -2.917156        -0.632640
 H        -4.146812        -3.152331        -2.895849
 H        -3.491076        -1.759332        -3.474927
 H        -2.354427        -3.032279        -2.871451
