19
Iteration:  4552charge 0 multiplicity 1
 C         1.422369         0.021106        -0.277241
 C         0.034464        -0.158806        -0.057766
 C        -1.175533        -0.344684         0.031495
 C        -2.515021        -0.488365         0.568061
 O        -3.054800         0.875830         0.934647
 C        -3.418525        -0.846514        -0.567986
 O        -4.356328        -2.001977        -0.509330
 C        -3.187432        -2.025062        -1.417026
 C        -3.542233        -2.232548        -2.897826
 H         1.527336         0.595451        -1.302757
 H         2.060187         0.630908         0.442967
 H         1.876186        -0.937399        -0.321971
 H        -2.639177        -1.196239         1.351725
 H        -2.338697         1.523302         0.762127
 H        -3.970741         0.010840        -1.090085
 H        -2.532306        -2.896490        -1.005003
 H        -3.860665        -3.292237        -2.925277
 H        -4.425330        -1.549477        -3.064191
 H        -2.639676        -1.881582        -3.493637
