19
Iteration:  1470charge 0 multiplicity 1
 C         1.511176         0.298163        -0.429071
 C         0.085469         0.093648        -0.051078
 C        -1.087660        -0.184361         0.233073
 C        -2.534887        -0.361386         0.322900
 O        -3.152497         1.033085         0.516694
 C        -3.052977        -1.013013        -0.874748
 O        -4.378731        -1.319328        -0.787951
 C        -3.503689        -2.453041        -0.872329
 C        -3.543476        -3.262805        -2.118572
 H         2.157529        -0.486510         0.020854
 H         1.594885         0.673252        -1.471141
 H         1.724500         1.238600         0.139091
 H        -3.006862        -0.896013         1.162631
 H        -3.873306         0.828331        -0.179973
 H        -2.726462        -0.663284        -1.875876
 H        -3.316610        -3.043597         0.128232
 H        -4.462547        -3.788685        -2.214927
 H        -3.494499        -2.670341        -3.066997
 H        -2.682060        -3.889532        -2.103075
