19
Iteration:  4208charge 0 multiplicity 1
 C         1.531423         0.304823        -0.326053
 C         0.141472        -0.036381         0.019178
 C        -1.060905        -0.346150         0.140932
 C        -2.478658        -0.536415         0.449198
 O        -3.113955         0.633233         0.974822
 C        -3.289823        -0.842367        -0.724727
 O        -4.488900        -1.463982        -0.718019
 C        -3.398346        -2.207348        -1.265309
 C        -3.605950        -2.637097        -2.740091
 H         2.261492        -0.303827         0.149880
 H         1.661774         0.028698        -1.424253
 H         1.878265         1.400871        -0.147347
 H        -2.502483        -1.482084         1.124152
 H        -2.542865         0.932731         1.708245
 H        -3.317465        -0.039940        -1.548305
 H        -2.995558        -3.077212        -0.696715
 H        -4.560938        -3.156343        -2.523505
 H        -3.612601        -1.924676        -3.647930
 H        -2.804098        -3.366328        -3.008047
