19
Iteration:  1370charge 0 multiplicity 1
 C         1.536429         0.246917        -0.180621
 C         0.057412         0.202553        -0.227514
 C        -1.122894        -0.100838         0.074789
 C        -2.502030        -0.349079         0.325088
 O        -3.119143         1.012747         0.452495
 C        -3.102989        -0.959292        -0.901435
 O        -4.530417        -1.404667        -0.751053
 C        -3.453753        -2.382517        -0.941278
 C        -3.533613        -3.369855        -2.081912
 H         2.079512        -0.314888        -0.969301
 H         1.927082         1.332672        -0.146135
 H         1.678018        -0.015548         0.862368
 H        -2.607298        -1.136377         1.071917
 H        -2.435426         1.538461         0.894945
 H        -3.039715        -0.533670        -1.938707
 H        -3.341199        -3.076944        -0.036256
 H        -4.121980        -4.167712        -1.730961
 H        -3.839987        -2.945782        -3.019899
 H        -2.560994        -3.734421        -2.311091
