19
Iteration:  4318
 C         1.354042         0.163701        -0.524904
 C         0.036995        -0.151264        -0.026680
 C        -1.106576        -0.383438         0.226929
 C        -2.568457        -0.427707         0.516727
 O        -3.104960         0.689429         1.199793
 C        -3.180051        -0.837655        -0.828876
 O        -4.478820        -1.450195        -0.704303
 C        -3.422082        -2.204941        -1.323832
 C        -3.321929        -2.573609        -2.693412
 H         1.901591         0.729071         0.219652
 H         1.869248        -0.704369        -0.976710
 H         1.103536         0.727785        -1.527368
 H        -2.793522        -1.368259         1.141345
 H        -2.360376         1.202325         1.545348
 H        -3.124752        -0.151963        -1.644494
 H        -3.122166        -3.069481        -0.698140
 H        -3.738862        -3.566805        -2.903939
 H        -3.755175        -1.830733        -3.387685
 H        -2.253491        -2.708398        -3.101888
