19
Iteration:   793
 C         1.558324         0.343917         0.052363
 C         0.095282         0.321331         0.097835
 C        -1.054855        -0.104294         0.042295
 C        -2.517942        -0.246467         0.072255
 O        -3.004200         1.251180         0.254363
 C        -3.210706        -1.142513        -1.016466
 O        -4.515453        -1.558008        -0.628112
 C        -3.478982        -2.527048        -0.885960
 C        -3.587578        -3.442420        -2.084545
 H         2.100546        -0.022466        -0.920372
 H         2.048668         1.258429         0.256590
 H         1.786520        -0.253755         1.018902
 H        -3.026438        -0.810730         0.963524
 H        -3.135711         1.365119        -0.700937
 H        -3.214285        -0.790116        -2.043924
 H        -3.334285        -3.012363         0.058394
 H        -4.305115        -4.328141        -2.023993
 H        -3.772393        -2.870618        -3.041360
 H        -2.577626        -3.922807        -2.206666
