19
Iteration:   830charge 0 multiplicity 1
 C         1.608384         0.344988         0.096220
 C         0.157361         0.112163        -0.021885
 C        -1.071491        -0.015705        -0.003431
 C        -2.527519        -0.259850         0.261665
 O        -3.259298         1.125247         0.115345
 C        -3.133743        -1.030249        -0.960180
 O        -4.469086        -1.524050        -0.655171
 C        -3.325815        -2.540735        -0.898774
 C        -3.644895        -3.368814        -2.074719
 H         2.085997        -0.401127        -0.459514
 H         1.812924         1.459277        -0.132412
 H         1.865108         0.041252         1.095293
 H        -2.765958        -0.673177         1.218092
 H        -2.768045         1.797689        -0.302639
 H        -2.913485        -0.600938        -1.953315
 H        -3.168805        -3.205564         0.013559
 H        -4.455658        -4.059542        -1.565945
 H        -4.137687        -2.809248        -2.903672
 H        -2.754418        -3.944339        -2.456330
