19
Iteration:  2210charge 0 multiplicity 1
 C         1.552146         0.358034        -0.126651
 C         0.128581         0.043659        -0.090353
 C        -1.066299        -0.251598         0.049355
 C        -2.582643        -0.292277         0.192617
 O        -3.040427         1.068175         0.586809
 C        -3.351179        -0.866690        -0.895403
 O        -4.447149        -1.692028        -0.513545
 C        -3.338417        -2.377259        -1.138256
 C        -3.639964        -3.128277        -2.306794
 H         1.735410         1.430122         0.021480
 H         2.085995        -0.307577         0.613763
 H         1.937958         0.023905        -1.105803
 H        -2.897043        -0.991096         1.117965
 H        -2.214414         1.490927         0.857843
 H        -3.529190        -0.432810        -1.859577
 H        -2.755521        -2.941043        -0.514736
 H        -4.236808        -4.005579        -1.979193
 H        -4.192728        -2.550777        -3.049673
 H        -2.665633        -3.444561        -2.768129
