19
Iteration:  2450charge 0 multiplicity 1
 C         1.433245         0.013415        -0.517438
 C         0.026720        -0.008661        -0.132834
 C        -1.195003        -0.293756         0.087997
 C        -2.662799        -0.316415         0.502143
 O        -3.151515         1.121135         0.769780
 C        -3.342481        -0.926297        -0.751482
 O        -4.585392        -1.574662        -0.652319
 C        -3.296224        -2.324297        -1.030827
 C        -3.000536        -2.870692        -2.394593
 H         1.557782        -0.927150        -0.951460
 H         1.580772         0.727094        -1.372004
 H         2.108440         0.179684         0.352564
 H        -2.788587        -0.999347         1.367779
 H        -3.185460         1.555001        -0.151729
 H        -3.349849        -0.285234        -1.664200
 H        -3.106657        -2.912697        -0.022161
 H        -3.404961        -3.876398        -2.531249
 H        -3.359258        -2.259509        -3.174127
 H        -1.932963        -3.103852        -2.155887
