19
Iteration:  4820
 C         1.219789         0.318969        -0.538306
 C         0.009643        -0.133707         0.031128
 C        -1.111245        -0.529671         0.303929
 C        -2.491593        -0.693847         0.581335
 O        -2.906313         0.569680         1.294934
 C        -3.061390        -0.824575        -0.782863
 O        -4.520653        -1.301840        -0.857993
 C        -3.517146        -2.135814        -1.281130
 C        -3.385997        -2.531330        -2.857913
 H         1.965423        -0.302453        -0.143092
 H         1.150559         0.344739        -1.619597
 H         1.570401         1.375916        -0.307110
 H        -2.896030        -1.529094         1.248396
 H        -2.488506         1.319886         0.835966
 H        -2.965681        -0.030550        -1.522440
 H        -3.574148        -3.091631        -0.689063
 H        -3.899059        -3.504071        -2.955307
 H        -3.760951        -1.846451        -3.556500
 H        -2.317456        -2.560098        -3.009238
