19
Iteration:  1793
 C         1.560778        -0.042388        -0.268454
 C         0.028353        -0.267543        -0.038669
 C        -1.163313        -0.074025        -0.114989
 C        -2.672339        -0.045406         0.294736
 O        -3.191352         1.270454         0.547456
 C        -3.520911        -0.853472        -0.719007
 O        -4.377275        -1.914581        -0.366106
 C        -3.124210        -2.186478        -1.088686
 C        -3.281737        -3.022111        -2.404249
 H         1.695412         0.207769        -1.313952
 H         1.896747         0.679283         0.458414
 H         1.996225        -1.031490        -0.072125
 H        -2.885231        -0.666819         1.200245
 H        -3.379116         1.637953        -0.308672
 H        -3.776166        -0.454804        -1.748166
 H        -2.550617        -2.686027        -0.269337
 H        -3.614475        -3.987446        -2.146171
 H        -4.007677        -2.523393        -3.077208
 H        -2.302842        -2.855595        -2.820789
