19
Iteration:  2010
 C         1.495942         0.193849        -0.544673
 C         0.141866         0.057003        -0.044500
 C        -1.042087        -0.271383         0.183605
 C        -2.572211        -0.337379         0.411220
 O        -3.184277         0.968031         0.542148
 C        -3.225416        -0.935333        -0.807622
 O        -4.661132        -1.385793        -0.880226
 C        -3.497253        -2.312372        -0.816686
 C        -3.145391        -3.135576        -2.196912
 H         2.047455        -0.749417        -0.159069
 H         1.363566        -0.036495        -1.552575
 H         1.838672         1.190969        -0.284978
 H        -2.854833        -0.805516         1.390837
 H        -2.981185         1.204641         1.489217
 H        -3.218968        -0.430854        -1.773047
 H        -3.456497        -2.850908         0.084461
 H        -3.756631        -4.063354        -2.157488
 H        -3.386110        -2.467573        -3.040005
 H        -2.048108        -3.288969        -2.091107
