19
Iteration:  1208
 C         1.563435         0.066584        -0.239360
 C         0.055622        -0.180568         0.014096
 C        -1.181648        -0.110468         0.049683
 C        -2.654012        -0.080141         0.215784
 O        -3.170620         1.255530         0.275724
 C        -3.331114        -0.898290        -0.926779
 O        -4.510057        -1.689718        -0.505687
 C        -3.293400        -2.357281        -0.876217
 C        -3.194305        -3.144396        -2.153230
 H         1.851222         1.031348        -0.723288
 H         2.111232        -0.066967         0.619528
 H         2.055693        -0.711101        -0.819809
 H        -2.879931        -0.697202         1.091797
 H        -4.071223         1.121392         0.599577
 H        -3.575503        -0.358017        -1.830862
 H        -2.638611        -2.785389        -0.049707
 H        -3.706224        -4.117723        -1.961220
 H        -3.722601        -2.513744        -2.898651
 H        -2.217094        -3.375839        -2.640234
