19
Iteration:  4096charge 0 multiplicity 1
 C         1.620110         0.236660        -0.125779
 C         0.138172        -0.012231        -0.031166
 C        -1.056277        -0.153487         0.121524
 C        -2.398172        -0.510828         0.298368
 O        -3.048306         0.706647         0.900408
 C        -3.351208        -0.836893        -0.907403
 O        -4.490468        -1.687343        -0.541611
 C        -3.451245        -2.265340        -1.314827
 C        -3.737560        -2.596143        -2.678598
 H         2.107867        -0.587936        -0.523438
 H         2.049183         1.062474        -0.771369
 H         1.838001         0.302050         1.026411
 H        -2.503556        -1.401829         0.969159
 H        -2.409509         1.244488         1.419269
 H        -3.656224         0.062514        -1.506467
 H        -2.893358        -2.977418        -0.702717
 H        -4.066485        -3.700673        -2.797693
 H        -4.398499        -1.952255        -3.294181
 H        -2.720678        -2.597790        -3.175732
