19
Iteration:   212
 C         1.529542         0.261620        -0.183144
 C         0.173522        -0.010528         0.268934
 C        -1.049405         0.052515         0.195065
 C        -2.562415        -0.102503         0.012792
 O        -3.292951         1.116642         0.044722
 C        -3.143626        -1.026242        -1.020685
 O        -4.625314        -1.432945        -0.826802
 C        -3.431022        -2.448941        -0.778468
 C        -3.317598        -3.583326        -1.780988
 H         1.581842         1.038360        -1.002138
 H         2.042775         0.748741         0.638440
 H         2.061183        -0.656662        -0.663396
 H        -2.588022        -0.555150         0.999096
 H        -2.774721         1.885663         0.163059
 H        -2.783175        -0.770613        -2.060097
 H        -3.474181        -2.705270         0.269948
 H        -4.195425        -4.233800        -1.559696
 H        -3.258973        -3.164010        -2.787589
 H        -2.426391        -4.110410        -1.348076
