19
Iteration:  1083
 C         1.378212        -0.181048        -0.371796
 C        -0.018326        -0.164413        -0.067612
 C        -1.217152         0.040687         0.197508
 C        -2.740987        -0.100185         0.305976
 O        -3.417783         1.156946         0.244274
 C        -3.144915        -0.895352        -0.914078
 O        -4.362829        -1.473371        -0.659142
 C        -3.222223        -2.360090        -0.837444
 C        -3.029622        -3.168676        -2.026009
 H         2.089876         0.266538         0.233131
 H         1.877603        -1.157217        -0.637411
 H         1.495365         0.260721        -1.331906
 H        -2.819819        -0.572000         1.286839
 H        -3.367451         1.511191         1.156383
 H        -3.093517        -0.306660        -1.859628
 H        -2.894949        -2.695389         0.124551
 H        -3.733356        -3.953100        -2.122544
 H        -3.188897        -2.701265        -2.968927
 H        -2.053086        -3.511618        -1.972123
