19
Iteration:  3407
 C         1.463134         0.179180        -0.448999
 C         0.089085         0.101295         0.013050
 C        -1.066340        -0.161811         0.267621
 C        -2.479974        -0.483014         0.461952
 O        -3.123842         0.788995         0.890992
 C        -3.180964        -0.938197        -0.889979
 O        -4.483973        -1.491638        -0.727041
 C        -3.363275        -2.296719        -1.130805
 C        -3.568940        -2.825415        -2.584057
 H         1.585401        -0.111028        -1.593253
 H         1.848932         1.164174        -0.196752
 H         1.917605        -0.558844         0.064786
 H        -2.768971        -1.356516         1.115029
 H        -2.460399         1.103968         1.540339
 H        -3.239237        -0.166570        -1.692795
 H        -3.012226        -2.867849        -0.236464
 H        -4.402908        -3.568480        -2.702546
 H        -3.886882        -1.920819        -3.267451
 H        -2.674729        -3.265049        -3.187336
