19
Iteration:   450charge 0 multiplicity 1
 C         1.450995        -0.110545        -0.115490
 C         0.000296        -0.035135         0.098373
 C        -1.174681        -0.010574         0.035140
 C        -2.632672         0.020468         0.104012
 O        -3.267379         1.260365         0.004249
 C        -3.338825        -0.872129        -0.876284
 O        -4.553607        -1.824671        -0.471476
 C        -3.281690        -2.344739        -0.805564
 C        -2.963270        -3.147802        -1.978091
 H         1.994020        -0.754133         0.616620
 H         1.485963        -0.781669        -1.032188
 H         2.011531         0.810620        -0.122897
 H        -2.984731        -0.238800         1.116890
 H        -3.207711         1.692476        -0.816756
 H        -3.554412        -0.424241        -1.905957
 H        -2.675778        -2.647324         0.053541
 H        -3.457238        -4.201422        -2.000281
 H        -3.446332        -2.849442        -2.939224
 H        -1.870052        -3.446020        -2.322159
