19
Iteration:  3602charge 0 multiplicity 1
 C         1.617458         0.143091        -0.222935
 C         0.099927         0.075455        -0.131901
 C        -1.046830        -0.046939         0.277853
 C        -2.445627        -0.386655         0.322672
 O        -3.145596         0.726910         0.922880
 C        -3.212195        -0.879023        -0.854153
 O        -4.388736        -1.616094        -0.505540
 C        -3.422262        -2.329489        -1.331154
 C        -3.771999        -2.805556        -2.652804
 H         2.116697        -0.471033         0.447475
 H         2.019727         0.079286        -1.247804
 H         1.864563         1.243766         0.045342
 H        -2.618011        -1.150151         1.182690
 H        -2.997460         1.598444         0.492477
 H        -3.195143        -0.223124        -1.765598
 H        -2.994463        -3.189858        -0.754901
 H        -4.593557        -3.502613        -2.615167
 H        -4.021234        -2.047321        -3.453790
 H        -2.956146        -3.253724        -3.158427
