19
Iteration:  3726
 C         1.330494         0.132703        -0.457872
 C        -0.013017        -0.094851        -0.110033
 C        -1.166660        -0.284090         0.157017
 C        -2.626919        -0.427198         0.497181
 O        -2.989571         0.873253         1.043019
 C        -3.272935        -0.841347        -0.800101
 O        -4.524321        -1.601210        -0.695023
 C        -3.284181        -2.205637        -1.176000
 C        -3.310187        -2.739001        -2.632280
 H         1.943537         0.589346         0.399343
 H         1.773488        -0.856383        -0.580689
 H         1.408378         0.684978        -1.323121
 H        -2.801135        -1.174078         1.281490
 H        -2.155097         1.371986         0.906152
 H        -3.182568        -0.084499        -1.571537
 H        -2.634409        -2.769531        -0.533938
 H        -3.585574        -3.778809        -2.825106
 H        -4.100166        -2.154584        -3.008295
 H        -2.436969        -2.559645        -3.309406
