19
Iteration:  1595
 C         1.481623         0.138957        -0.268691
 C         0.022831         0.030153        -0.294560
 C        -1.172819        -0.121027         0.010357
 C        -2.606176        -0.223877         0.290867
 O        -3.143798         1.056022         0.799880
 C        -3.142394        -0.911639        -0.935248
 O        -4.506599        -1.437651        -0.711898
 C        -3.431356        -2.363780        -0.913229
 C        -3.312231        -3.307005        -2.207667
 H         1.877350         0.644280         0.669624
 H         1.846998        -0.847388        -0.493419
 H         1.801035         0.827497        -1.121294
 H        -2.751634        -0.767192         1.204125
 H        -2.728807         1.674080         0.100888
 H        -2.821416        -0.431740        -1.831908
 H        -3.080883        -2.898789        -0.076355
 H        -3.947478        -4.196328        -1.976813
 H        -3.641192        -2.870532        -3.114178
 H        -2.336938        -3.802015        -2.228339
