19
Iteration:  2501
 C         1.377112         0.010096        -0.525495
 C        -0.021123        -0.168290        -0.073862
 C        -1.162792        -0.202954         0.219165
 C        -2.641206        -0.228015         0.472266
 O        -3.229670         1.081656         0.698924
 C        -3.262818        -0.871629        -0.728254
 O        -4.396304        -1.638347        -0.672805
 C        -3.257438        -2.291812        -1.044340
 C        -3.183862        -2.903225        -2.433728
 H         2.111288        -0.894222        -0.382413
 H         1.392761         0.336590        -1.536867
 H         1.719736         0.788669         0.111589
 H        -2.781793        -0.774382         1.452253
 H        -2.932418         1.773142         0.072795
 H        -3.069228        -0.254680        -1.605582
 H        -2.856421        -2.850652        -0.252478
 H        -3.656361        -3.893026        -2.352965
 H        -3.963442        -2.290782        -2.918078
 H        -2.234800        -3.050042        -2.903954
