19
Iteration:  1388
 C         1.429181         0.306595        -0.148021
 C         0.059427         0.210045        -0.242365
 C        -1.060305        -0.133268         0.048798
 C        -2.519203        -0.305939         0.311820
 O        -3.024821         0.974846         0.491407
 C        -3.152747        -0.987898        -0.946107
 O        -4.474333        -1.364027        -0.832328
 C        -3.519191        -2.440396        -0.857454
 C        -3.508896        -3.357532        -2.067426
 H         1.786726        -0.455721        -0.831055
 H         1.843010         1.148255        -0.650045
 H         1.919596         0.053842         0.787447
 H        -2.856757        -0.903559         1.206501
 H        -2.855373         1.255139         1.402801
 H        -2.910995        -0.494423        -1.883650
 H        -3.168985        -2.816639         0.044065
 H        -4.251530        -4.220974        -1.923791
 H        -3.834987        -2.806511        -2.950814
 H        -2.529210        -3.901396        -2.234956
