19
Iteration:    23charge 0 multiplicity 1
 C         1.500400         0.144492        -0.012019
 C         0.037322         0.084226        -0.210289
 C        -1.169253         0.116675         0.154505
 C        -2.647685        -0.057462         0.256096
 O        -3.188495         1.375139         0.025098
 C        -3.126198        -1.106678        -0.895690
 O        -4.470832        -1.630556        -0.929365
 C        -3.318816        -2.528382        -0.679864
 C        -3.391051        -3.563468        -1.786249
 H         1.771600        -0.181007         1.008698
 H         2.067060        -0.448790        -0.720118
 H         1.817873         1.212487        -0.150350
 H        -2.916994        -0.234636         1.274977
 H        -2.430774         1.819904        -0.471252
 H        -2.763331        -0.726780        -1.852508
 H        -3.352563        -2.878031         0.342918
 H        -4.145867        -4.285607        -1.487367
 H        -3.764749        -3.041475        -2.670356
 H        -2.462585        -4.091838        -2.031881
