19
Iteration:  1367
 C         1.526261         0.245708        -0.163909
 C         0.091885         0.191888        -0.223748
 C        -1.084024        -0.100492         0.068457
 C        -2.499592        -0.337207         0.326017
 O        -3.148390         1.020719         0.460693
 C        -3.136161        -0.977503        -0.907872
 O        -4.508469        -1.407281        -0.747210
 C        -3.466583        -2.410708        -0.948159
 C        -3.527157        -3.328790        -2.078838
 H         2.017350        -0.193449        -0.930509
 H         1.867573         1.275881        -0.208698
 H         1.811019        -0.120824         0.789903
 H        -2.701380        -1.124065         1.049505
 H        -2.453383         1.614990         0.722501
 H        -3.161505        -0.552434        -1.893963
 H        -3.285131        -3.031410        -0.132412
 H        -4.117520        -4.184484        -1.677050
 H        -3.901300        -2.981393        -3.013695
 H        -2.532486        -3.782555        -2.277405
