19
Iteration:   184
 C         1.521076         0.277405        -0.150749
 C         0.097655         0.091719         0.120467
 C        -1.148805        -0.031075         0.058122
 C        -2.611580        -0.192803         0.146680
 O        -3.241507         1.132678         0.067506
 C        -3.066037        -1.040435        -0.976366
 O        -4.492814        -1.417131        -0.889094
 C        -3.511603        -2.468541        -0.729632
 C        -3.350602        -3.510169        -1.718372
 H         1.674116         1.277942        -0.616112
 H         2.002640         0.165744         0.890258
 H         1.977032        -0.448932        -0.776620
 H        -2.793890        -0.655014         1.186945
 H        -2.594177         1.697351        -0.343923
 H        -2.599854        -0.678858        -1.909004
 H        -3.494394        -2.772404         0.415566
 H        -4.120140        -4.308972        -1.798227
 H        -3.210482        -3.153866        -2.769365
 H        -2.371594        -3.955194        -1.439492
