19
Iteration:  2919
 C         1.495397         0.211969        -0.461804
 C         0.127414         0.119941         0.015998
 C        -1.052292        -0.155872         0.255257
 C        -2.497537        -0.505203         0.456839
 O        -3.125279         0.833460         0.838084
 C        -3.219926        -0.965931        -0.747509
 O        -4.587968        -1.419723        -0.756370
 C        -3.524346        -2.335812        -1.101835
 C        -3.356419        -2.919399        -2.516049
 H         1.773663        -0.417900        -1.408026
 H         1.676729         1.247178        -0.755797
 H         2.167271        -0.085316         0.266172
 H        -2.681298        -1.363262         1.230607
 H        -2.738347         1.339401         0.094148
 H        -3.182620        -0.273550        -1.655627
 H        -3.322570        -3.131970        -0.472683
 H        -4.230071        -3.624720        -2.692813
 H        -3.496520        -2.096446        -3.319833
 H        -2.334191        -3.490823        -2.664772
