19
Iteration:  3666charge 0 multiplicity 1
 C         1.500852         0.104602        -0.254361
 C         0.102736        -0.072996        -0.147185
 C        -1.073308        -0.119221         0.050859
 C        -2.519404        -0.422944         0.311192
 O        -3.109224         0.767840         1.011421
 C        -3.331596        -0.873476        -0.841311
 O        -4.465830        -1.593523        -0.525988
 C        -3.439920        -2.285854        -1.198120
 C        -3.457364        -2.720956        -2.645843
 H         2.115698         0.228375         0.599145
 H         1.899529        -0.574302        -1.058598
 H         1.697355         1.303130        -0.559449
 H        -2.561693        -1.274057         1.090976
 H        -2.920665         1.521783         0.424685
 H        -3.353869        -0.022954        -1.637221
 H        -2.745398        -2.947977        -0.555020
 H        -4.064333        -3.639075        -2.747223
 H        -3.958170        -1.796997        -3.166471
 H        -2.402412        -2.795099        -2.722349
