19
Iteration:  2393charge 0 multiplicity 1
 C         1.345933        -0.024244        -0.459234
 C        -0.059250        -0.109140        -0.221589
 C        -1.193204        -0.144255         0.145206
 C        -2.654388        -0.179647         0.373914
 O        -3.282632         1.026289         0.867506
 C        -3.189690        -0.825045        -0.880387
 O        -4.345057        -1.532433        -0.675510
 C        -3.177097        -2.291608        -0.993151
 C        -3.226478        -3.072069        -2.353321
 H         1.628666        -0.483996        -1.428146
 H         1.522060         1.007050        -0.551415
 H         1.999164        -0.384880         0.262566
 H        -2.839692        -0.921364         1.267062
 H        -2.718420         1.783895         0.797564
 H        -3.268947        -0.298114        -1.829518
 H        -3.023005        -3.008426        -0.101683
 H        -3.854263        -3.893336        -2.224132
 H        -3.405304        -2.459432        -3.192076
 H        -2.259334        -3.370145        -2.680177
