19
Iteration:  1005charge 0 multiplicity 1
 C         1.432003        -0.011591        -0.380957
 C        -0.013414        -0.002454         0.025868
 C        -1.216327        -0.012690         0.215395
 C        -2.696354        -0.178022         0.295985
 O        -3.138825         1.287456         0.298384
 C        -3.190106        -0.939509        -0.893074
 O        -4.508228        -1.554076        -0.815191
 C        -3.320556        -2.381062        -0.824623
 C        -3.094726        -3.297822        -2.034032
 H         1.963867        -0.518088         0.389029
 H         1.543091        -0.811592        -1.172333
 H         1.950956         0.920139        -0.577956
 H        -2.949272        -0.647602         1.302190
 H        -4.049955         1.144124         0.735433
 H        -2.993570        -0.407535        -1.833217
 H        -3.226966        -2.805857         0.186471
 H        -3.509952        -4.296830        -2.032855
 H        -3.222865        -2.704132        -2.936416
 H        -2.068765        -3.592610        -1.940146
