19
Iteration:  1088
 C         1.409566        -0.217191        -0.395500
 C        -0.051196        -0.143200        -0.023233
 C        -1.247270         0.015074         0.173866
 C        -2.691319        -0.093776         0.260596
 O        -3.401288         1.158664         0.263963
 C        -3.169166        -0.907657        -0.891449
 O        -4.370290        -1.476163        -0.648636
 C        -3.245002        -2.311663        -0.804973
 C        -3.018707        -3.177670        -2.075299
 H         2.050287         0.489259         0.302172
 H         1.880891        -1.164894        -0.574233
 H         1.531709         0.298348        -1.411641
 H        -2.820336        -0.431923         1.326112
 H        -3.653679         1.505580         1.140802
 H        -3.009221        -0.379999        -1.831540
 H        -2.786405        -2.679988         0.160672
 H        -3.773250        -4.063745        -2.004014
 H        -3.121648        -2.738419        -3.123626
 H        -1.914531        -3.592471        -2.048733
