19
Iteration:  3123
 C         1.476861        -0.068432        -0.324199
 C         0.081728        -0.128650        -0.095256
 C        -1.142882        -0.120018         0.058861
 C        -2.589932        -0.273715         0.410193
 O        -3.307663         0.964529         0.839479
 C        -3.313681        -0.732493        -0.894202
 O        -4.283457        -1.843655        -0.462937
 C        -3.186685        -2.163426        -1.246091
 C        -3.485343        -2.770771        -2.567319
 H         1.999044        -0.037401         0.550324
 H         1.858485        -0.936335        -0.817452
 H         1.674633         0.953434        -0.897052
 H        -2.725213        -0.914227         1.376785
 H        -2.652552         1.373265         1.432968
 H        -3.596810         0.084020        -1.611382
 H        -2.394924        -2.747771        -0.645217
 H        -4.204259        -3.606718        -2.498360
 H        -4.062132        -1.986396        -3.051874
 H        -2.627174        -2.919595        -3.237274
