19
Iteration:   636charge 0 multiplicity 1
 C         1.435563         0.039165        -0.242669
 C        -0.025593        -0.085733         0.000500
 C        -1.251711        -0.025709         0.207635
 C        -2.656237        -0.097835         0.301481
 O        -3.308446         1.120758         0.057170
 C        -3.076551        -0.933726        -0.920602
 O        -4.411257        -1.471857        -0.814009
 C        -3.297880        -2.378357        -0.740782
 C        -3.179210        -3.355098        -1.907018
 H         1.532053         1.109477        -0.561731
 H         2.170104        -0.349121         0.551841
 H         1.814586        -0.341212        -1.183037
 H        -3.118231        -0.447807         1.254352
 H        -2.977206         1.829366         0.549936
 H        -2.772483        -0.509716        -1.943168
 H        -3.123929        -2.736513         0.279794
 H        -3.939319        -4.103821        -2.015153
 H        -3.359660        -2.818043        -2.832985
 H        -2.206469        -3.843094        -1.672652
