19
Iteration:  2536charge 0 multiplicity 1
 C         1.361816        -0.024005        -0.445629
 C        -0.023222        -0.112440        -0.163386
 C        -1.170872        -0.110124         0.346832
 C        -2.609543        -0.210134         0.373798
 O        -3.280493         1.027025         0.677237
 C        -3.191850        -0.807149        -0.856962
 O        -4.339905        -1.639891        -0.559616
 C        -3.182891        -2.303522        -1.089468
 C        -3.333533        -2.964656        -2.450144
 H         2.007301        -0.750371         0.153707
 H         1.682169        -0.070866        -1.461753
 H         1.628481         0.955585        -0.179986
 H        -2.994163        -0.926199         1.214366
 H        -2.420515         1.434609         0.867251
 H        -3.398142        -0.051768        -1.676552
 H        -2.664751        -2.866867        -0.240282
 H        -3.944206        -3.827259        -2.240264
 H        -3.888964        -2.439998        -3.197398
 H        -2.390622        -3.149769        -2.973003
