19
Iteration:  3862charge 0 multiplicity 1
 C         1.382727        -0.135612        -0.606067
 C        -0.006702         0.013477        -0.111165
 C        -1.176550        -0.159470         0.201251
 C        -2.582711        -0.302605         0.576905
 O        -3.228626         0.722078         1.155529
 C        -3.295110        -0.742350        -0.732768
 O        -4.477328        -1.614113        -0.726148
 C        -3.192572        -2.126564        -1.221195
 C        -3.201087        -2.734019        -2.691054
 H         1.823533         0.712877        -1.093343
 H         2.102650        -0.413807         0.166322
 H         1.235560        -1.015586        -1.260517
 H        -2.464140        -1.064398         1.319953
 H        -2.926501         1.504267         0.669892
 H        -3.295537         0.143893        -1.442819
 H        -2.862304        -2.845307        -0.450037
 H        -3.887202        -3.586989        -2.736315
 H        -3.486044        -1.764797        -3.242686
 H        -2.195886        -3.041421        -3.048547
