19
Iteration:  2041
 C         1.429870         0.229955        -0.430211
 C         0.033746        -0.098603        -0.171478
 C        -1.153422        -0.114735         0.175450
 C        -2.575063        -0.309249         0.380610
 O        -3.165370         0.988248         0.675485
 C        -3.104808        -0.888654        -0.871436
 O        -4.494774        -1.357582        -0.795463
 C        -3.471605        -2.382014        -0.905930
 C        -3.303524        -3.218356        -2.233035
 H         2.124967        -0.205904         0.347901
 H         1.636476        -0.159063        -1.426669
 H         1.655934         1.318384        -0.364682
 H        -2.853311        -1.240519         1.129861
 H        -2.400532         1.552940         0.793271
 H        -3.158223        -0.289206        -1.787171
 H        -3.243815        -2.880880         0.008817
 H        -3.928619        -4.132669        -2.090811
 H        -3.294104        -2.762999        -3.204329
 H        -2.354320        -3.784103        -2.096552
