19
Iteration:   300
 C         1.547350         0.203043        -0.019686
 C         0.068840        -0.034629        -0.017506
 C        -1.143424        -0.050032        -0.059015
 C        -2.576891        -0.134642         0.202426
 O        -3.272417         1.266365        -0.073107
 C        -3.210493        -1.010750        -0.916915
 O        -4.557448        -1.574286        -0.640505
 C        -3.407925        -2.456315        -0.775641
 C        -3.230852        -3.368640        -1.875911
 H         1.956799        -0.345417        -0.923658
 H         1.937962         1.246367         0.105672
 H         2.143359        -0.281480         0.945599
 H        -2.764322        -0.416603         1.268325
 H        -2.982115         1.699950         0.716436
 H        -3.104755        -0.676985        -1.995695
 H        -3.165345        -2.889491         0.225972
 H        -3.765938        -4.355004        -1.791500
 H        -3.501229        -3.077526        -2.896835
 H        -2.156772        -3.624845        -1.997281
