19
Iteration:  3096
 C         1.455675        -0.039418        -0.273327
 C         0.071987        -0.162870        -0.272487
 C        -1.097240        -0.000523         0.091947
 C        -2.546393        -0.307189         0.353667
 O        -3.279504         0.889352         0.814100
 C        -3.376697        -0.814287        -0.766824
 O        -4.382214        -1.729450        -0.414242
 C        -3.221798        -2.216478        -1.230426
 C        -3.391375        -2.744465        -2.612706
 H         1.740930        -0.369991         0.896717
 H         2.099274        -0.685339        -0.983969
 H         1.707610         0.963521        -0.428771
 H        -2.500261        -0.866606         1.230327
 H        -2.537641         1.420162         1.147344
 H        -3.545054        -0.056143        -1.507788
 H        -2.709239        -2.886389        -0.604359
 H        -3.859519        -3.781887        -2.550058
 H        -4.182115        -2.089728        -3.122355
 H        -2.468855        -2.674459        -3.224368
