19
Iteration:    47charge 0 multiplicity 1
 C         1.437129         0.185068        -0.067255
 C         0.024507         0.159290        -0.064920
 C        -1.172926        -0.027735         0.069785
 C        -2.606099        -0.110614         0.166309
 O        -3.225496         1.358614         0.052430
 C        -3.043237        -1.061640        -0.903783
 O        -4.419941        -1.462054        -0.831525
 C        -3.446396        -2.537026        -0.700650
 C        -3.379094        -3.664836        -1.831109
 H         1.662680         0.129505         0.965034
 H         1.835633        -0.685843        -0.411996
 H         1.942277         1.069415        -0.539169
 H        -2.831367        -0.341242         1.193618
 H        -2.449182         1.902733        -0.284918
 H        -2.560513        -0.828011        -1.896053
 H        -3.231795        -2.923981         0.354744
 H        -4.053285        -4.481080        -1.637142
 H        -3.528433        -3.293995        -2.868629
 H        -2.342737        -4.065255        -1.735543
