19
Iteration:  3191charge 0 multiplicity 1
 C         1.465744        -0.049731        -0.427191
 C         0.073177        -0.066103        -0.085579
 C        -1.079728        -0.212138         0.240434
 C        -2.574156        -0.273517         0.550426
 O        -3.253098         1.046282         0.649675
 C        -3.286753        -0.908809        -0.694903
 O        -4.444873        -1.815576        -0.436495
 C        -3.250026        -2.309709        -1.207061
 C        -3.374504        -2.612220        -2.739960
 H         1.866137         0.654107         0.149561
 H         2.057794        -0.976364        -0.270842
 H         1.637518         0.191813        -1.594190
 H        -2.895099        -1.001949         1.411495
 H        -2.988920         1.613101         1.403415
 H        -3.457180        -0.168728        -1.542510
 H        -2.461168        -2.846554        -0.646554
 H        -3.879948        -3.492965        -2.881298
 H        -4.066499        -1.828061        -3.069413
 H        -2.440494        -2.543514        -3.270531
