19
Iteration:  4940
 C         1.629380         0.112680        -0.188096
 C         0.126741         0.169875        -0.074082
 C        -1.059672        -0.167542         0.085254
 C        -2.428567        -0.540348         0.452336
 O        -3.073904         0.389643         1.288445
 C        -3.259127        -0.790244        -0.918037
 O        -4.502258        -1.546026        -0.632937
 C        -3.372041        -2.182241        -1.445445
 C        -3.804576        -2.524866        -2.876294
 H         1.888052         0.314286         0.845826
 H         2.143792        -0.718410        -0.640517
 H         2.101037         1.011417        -0.683003
 H        -2.497887        -1.576227         1.041213
 H        -2.758565         1.285314         1.095054
 H        -3.483557         0.131658        -1.413023
 H        -2.682721        -2.941160        -0.897537
 H        -4.786149        -3.049145        -2.910915
 H        -3.884399        -1.660451        -3.457670
 H        -2.913479        -3.123736        -3.155571
