19
Iteration:  1836
 C         1.405994        -0.156071        -0.200414
 C        -0.063959        -0.039556        -0.382026
 C        -1.192063        -0.093026         0.021209
 C        -2.653030        -0.109386         0.353394
 O        -3.212310         1.190425         0.547974
 C        -3.332031        -0.883735        -0.878557
 O        -4.367345        -1.760257        -0.369104
 C        -3.124280        -2.400997        -0.901820
 C        -3.220121        -2.890388        -2.384924
 H         1.804932        -0.564028        -1.150079
 H         1.792046         0.737174         0.178223
 H         1.789051        -0.917541         0.485774
 H        -2.766637        -0.667156         1.270012
 H        -3.416069         1.525912        -0.336154
 H        -3.540155        -0.142425        -1.697318
 H        -2.328424        -2.905787        -0.142806
 H        -3.533508        -3.919213        -2.416571
 H        -4.127065        -2.426274        -2.841873
 H        -2.354024        -2.606563        -3.004624
