19
Iteration:  3756
 C         1.362027         0.088229        -0.625927
 C        -0.004150        -0.051375        -0.015417
 C        -1.122532        -0.376184         0.337435
 C        -2.642300        -0.339146         0.527083
 O        -3.070568         0.894855         1.023207
 C        -3.251485        -0.819309        -0.801555
 O        -4.494566        -1.623956        -0.649680
 C        -3.354992        -2.258101        -1.206729
 C        -3.234125        -2.706213        -2.707478
 H         1.956064         0.819095        -0.123519
 H         1.707440        -0.944713        -0.407659
 H         1.336462         0.405509        -1.738069
 H        -3.098326        -1.098647         1.259143
 H        -2.234091         1.377357         0.932028
 H        -3.223277        -0.122789        -1.571252
 H        -2.823533        -2.859676        -0.521777
 H        -3.698648        -3.620884        -2.929580
 H        -3.818952        -1.983472        -3.195694
 H        -2.202406        -2.652942        -3.025497
