19
Iteration:    89charge 0 multiplicity 1
 C         1.557960         0.276697        -0.104477
 C         0.158420         0.026802         0.169769
 C        -1.036517        -0.066070         0.119208
 C        -2.467735        -0.246733         0.092410
 O        -3.375307         1.150938         0.027023
 C        -3.140122        -1.017822        -1.072785
 O        -4.595824        -1.476716        -0.885741
 C        -3.457638        -2.392599        -0.684493
 C        -3.317336        -3.450524        -1.652694
 H         2.052092         1.046634         0.482729
 H         2.045636        -0.686804        -0.231662
 H         1.646712         0.751816        -1.154493
 H        -2.827760        -0.703802         0.961542
 H        -2.839704         1.737715        -0.494979
 H        -3.035587        -0.812290        -2.136086
 H        -3.335766        -2.592873         0.310705
 H        -4.165386        -4.093006        -1.611161
 H        -3.311833        -2.893873        -2.588316
 H        -2.372498        -3.973223        -1.500528
