19
Iteration:  1050
 C         1.383081        -0.182293        -0.358407
 C        -0.032275        -0.002541        -0.145710
 C        -1.192238         0.028238         0.250979
 C        -2.710619        -0.038941         0.387633
 O        -3.358232         1.222393         0.383463
 C        -3.154125        -0.942458        -0.856164
 O        -4.408793        -1.552118        -0.831047
 C        -3.208441        -2.421713        -0.847282
 C        -3.086056        -3.214116        -2.019180
 H         2.027447        -0.079669         0.443587
 H         1.500018        -1.194904        -0.854173
 H         1.518932         0.606170        -1.051260
 H        -2.964720        -0.607372         1.303950
 H        -2.750799         1.655007        -0.332977
 H        -2.967282        -0.421297        -1.825727
 H        -2.993699        -2.966901         0.071785
 H        -3.742813        -4.053305        -1.904193
 H        -3.312825        -2.553030        -2.845905
 H        -2.150728        -3.690759        -2.070776
