19
Iteration:  2565
 C         1.476161        -0.057828        -0.388560
 C         0.103613         0.086680         0.006933
 C        -1.157316        -0.059392         0.072206
 C        -2.616407        -0.275323         0.368637
 O        -3.255554         1.036774         0.676301
 C        -3.320317        -0.866643        -0.839712
 O        -4.447681        -1.680468        -0.561407
 C        -3.180820        -2.318496        -1.081129
 C        -3.348911        -2.929140        -2.438534
 H         2.087499        -0.707619         0.353959
 H         1.598732        -0.568476        -1.362352
 H         1.846122         0.980974        -0.562400
 H        -2.741422        -0.901669         1.214777
 H        -2.734574         1.073327         1.508025
 H        -3.389558        -0.238189        -1.684902
 H        -2.597493        -2.821502        -0.372917
 H        -4.101638        -3.748477        -2.437539
 H        -3.863491        -2.318583        -3.226759
 H        -2.436963        -3.286604        -2.939404
