19
Iteration:  3620
 C         1.579759         0.154350        -0.243635
 C         0.158273         0.128198        -0.086128
 C        -0.994255        -0.112632         0.104647
 C        -2.461911        -0.355935         0.432235
 O        -3.178035         0.800635         1.016572
 C        -3.183102        -0.918335        -0.907326
 O        -4.476717        -1.660203        -0.587246
 C        -3.379641        -2.339883        -1.204709
 C        -3.745092        -2.799514        -2.708667
 H         1.979918        -0.450716         0.634250
 H         1.793479        -0.322709        -1.214896
 H         2.302080         1.111534        -0.076074
 H        -2.410974        -1.116917         1.225939
 H        -3.046225         1.433106         0.276653
 H        -3.566777        -0.200069        -1.702179
 H        -2.831688        -3.119226        -0.571704
 H        -4.679512        -3.471270        -2.722168
 H        -3.995347        -1.875595        -3.322656
 H        -2.862158        -3.200204        -3.292977
