19
Iteration:  4789charge 0 multiplicity 1
 C         1.289729         0.301872        -0.567031
 C         0.057590        -0.154066        -0.001369
 C        -1.070163        -0.518991         0.338050
 C        -2.502187        -0.604627         0.551031
 O        -2.967379         0.544139         1.348874
 C        -3.198581        -0.773828        -0.816922
 O        -4.636911        -1.355371        -0.941019
 C        -3.409560        -2.161650        -1.200104
 C        -3.332153        -2.509807        -2.814218
 H         2.031850        -0.515242        -0.677148
 H         1.176131         0.413378        -1.680898
 H         1.711340         1.223312        -0.086270
 H        -2.787024        -1.407317         1.109344
 H        -2.297433         1.251929         1.273872
 H        -3.117960         0.053409        -1.634605
 H        -3.392288        -3.042360        -0.495678
 H        -4.010402        -3.348102        -2.976581
 H        -3.499732        -1.567608        -3.314490
 H        -2.272097        -2.927460        -3.170142
