19
Iteration:   903
 C         1.547153         0.216738        -0.058282
 C         0.112768         0.181025         0.019796
 C        -1.071467        -0.088111         0.070574
 C        -2.527954        -0.158626         0.156678
 O        -3.107079         1.250878         0.241636
 C        -3.243222        -1.015724        -0.884238
 O        -4.555662        -1.594252        -0.742420
 C        -3.402904        -2.477688        -0.890493
 C        -3.400517        -3.397018        -2.084222
 H         1.722397        -0.896778         0.097395
 H         1.823140         0.623369        -1.003092
 H         2.048157         0.636293         0.864155
 H        -2.734890        -0.487957         1.207852
 H        -4.008137         0.988888         0.457144
 H        -3.192545        -0.662388        -1.886320
 H        -3.016801        -2.811630         0.060289
 H        -4.138215        -4.114579        -1.767943
 H        -3.706251        -2.894800        -2.991059
 H        -2.461803        -3.879993        -2.281856
