19
Iteration:    54
 C         1.492139         0.204680        -0.061296
 C         0.024402         0.178602        -0.028808
 C        -1.177673        -0.024263         0.052342
 C        -2.635192        -0.182734         0.171734
 O        -3.237669         1.325025         0.040735
 C        -3.066753        -1.136714        -0.953240
 O        -4.438389        -1.410183        -0.797505
 C        -3.425780        -2.479201        -0.735721
 C        -3.344631        -3.611668        -1.776051
 H         1.934834         0.158460         1.013465
 H         1.963932        -0.832063        -0.420293
 H         1.796289         0.985552        -0.769998
 H        -2.987078        -0.483966         1.162478
 H        -2.445675         1.738129        -0.302737
 H        -2.709086        -0.804939        -1.899823
 H        -3.382527        -2.734998         0.255009
 H        -4.054049        -4.454241        -1.669140
 H        -3.427725        -3.333819        -2.819477
 H        -2.386718        -4.119892        -1.770857
