19
Iteration:   581
 C         1.359383        -0.109946        -0.278518
 C        -0.055504        -0.038892        -0.013726
 C        -1.232589         0.162780         0.146870
 C        -2.633352        -0.094029         0.225626
 O        -3.286485         1.268887         0.090612
 C        -3.127735        -0.974513        -0.892509
 O        -4.479247        -1.564170        -0.750227
 C        -3.257323        -2.416690        -0.771158
 C        -3.034713        -3.332189        -1.922113
 H         1.858821         0.633845         0.352131
 H         1.615881        -1.094538         0.204879
 H         1.647351        -0.279829        -1.277123
 H        -3.015644        -0.351901         1.192548
 H        -3.180828         1.715509         0.943386
 H        -3.127737        -0.600459        -1.951365
 H        -3.220752        -2.948354         0.176110
 H        -3.674538        -4.196831        -1.784579
 H        -3.023569        -2.768776        -2.859338
 H        -1.960489        -3.608073        -1.681007
