19
Iteration:  4743charge 0 multiplicity 1
 C         1.333369         0.101080        -0.535075
 C         0.001312        -0.136462        -0.198382
 C        -1.145045        -0.318982         0.183530
 C        -2.506700        -0.531780         0.547341
 O        -3.188455         0.501608         1.307309
 C        -3.210615        -0.808623        -0.743064
 O        -4.442814        -1.355090        -0.651208
 C        -3.372392        -2.121529        -1.354764
 C        -3.268755        -2.499151        -2.825558
 H         1.809966        -0.808009        -0.724072
 H         1.629767         0.730169        -1.326220
 H         1.707219         0.519856         0.456884
 H        -2.623766        -1.362085         1.120962
 H        -2.577725         1.252536         1.471481
 H        -3.085233        -0.088064        -1.512891
 H        -2.968323        -2.981736        -0.824505
 H        -4.167109        -3.143536        -2.927911
 H        -3.310085        -1.548968        -3.316131
 H        -2.402349        -3.024521        -3.060642
