19
Iteration:  3928charge 0 multiplicity 1
 C         1.536924         0.026414        -0.452774
 C        -0.001537        -0.164059        -0.194890
 C        -1.198544        -0.208691         0.073730
 C        -2.599309        -0.393359         0.551718
 O        -3.235605         0.716538         1.046900
 C        -3.298537        -0.745624        -0.694684
 O        -4.449634        -1.584567        -0.667008
 C        -3.271365        -2.099476        -1.239151
 C        -3.271105        -2.672487        -2.632203
 H         1.790443         0.570993        -1.417922
 H         2.050643         0.497342         0.375657
 H         1.772138        -1.064911        -0.487615
 H        -2.763619        -1.225360         1.229680
 H        -2.633820         1.486044         1.130553
 H        -3.321629         0.061468        -1.427169
 H        -2.786549        -2.859883        -0.661756
 H        -3.386797        -3.752019        -2.600923
 H        -4.217941        -2.258115        -3.151352
 H        -2.412593        -2.372095        -3.272108
