19
Iteration:  3457charge 0 multiplicity 1
 C         1.479622         0.404600        -0.294865
 C         0.106022        -0.240593        -0.123979
 C        -1.085249        -0.302310         0.120632
 C        -2.484533        -0.440250         0.371241
 O        -3.075415         0.774887         0.891339
 C        -3.270730        -0.909326        -0.858911
 O        -4.490513        -1.414573        -0.626761
 C        -3.472583        -2.267796        -1.189475
 C        -3.496260        -2.816593        -2.548926
 H         1.941304        -0.020007        -1.113233
 H         1.257707         1.433517        -0.517761
 H         2.235373         0.318400         0.611004
 H        -2.560474        -1.280374         1.103266
 H        -2.418695         1.074434         1.529222
 H        -3.167333        -0.291249        -1.765753
 H        -3.081010        -2.929806        -0.394400
 H        -4.286373        -3.614510        -2.570771
 H        -3.669956        -2.120206        -3.322931
 H        -2.621345        -3.357882        -2.773458
