19
Iteration:  3709
 C         1.517949         0.150335        -0.415440
 C        -0.009948        -0.137204        -0.166541
 C        -1.171930        -0.320227         0.112307
 C        -2.533843        -0.403507         0.500770
 O        -3.083011         0.818425         1.013425
 C        -3.391520        -0.781640        -0.775787
 O        -4.466816        -1.613995        -0.719762
 C        -3.276562        -2.201539        -1.169585
 C        -3.384752        -2.692970        -2.592320
 H         1.934346         0.555957         0.503827
 H         2.051997        -0.783303        -0.674137
 H         1.583507         1.105083        -1.119172
 H        -2.791750        -1.197215         1.236170
 H        -2.420052         1.508510         0.816580
 H        -3.498273         0.146469        -1.437353
 H        -3.035781        -3.104418        -0.491643
 H        -3.486047        -3.817207        -2.472322
 H        -4.270882        -2.299447        -3.238498
 H        -2.372981        -2.638333        -3.010705
