19
Iteration:     9
 C         1.488561         0.174855        -0.060250
 C         0.034392         0.044968        -0.045120
 C        -1.178688         0.051408         0.099986
 C        -2.608621        -0.107087         0.160054
 O        -3.222854         1.311591        -0.023188
 C        -3.151318        -1.005412        -0.898467
 O        -4.498853        -1.557389        -0.834823
 C        -3.337210        -2.503869        -0.664343
 C        -3.316475        -3.492506        -1.758388
 H         1.761424        -0.575923         0.845587
 H         2.069956        -0.394239        -0.973528
 H         1.894591         1.185334         0.073270
 H        -3.090360        -0.663998         0.995234
 H        -2.650266         1.670715        -0.686517
 H        -2.798387        -0.810753        -1.883041
 H        -2.940343        -2.809682         0.253161
 H        -4.046483        -4.345496        -1.580462
 H        -3.573286        -3.124313        -2.749779
 H        -2.364222        -4.009454        -1.868593
