19
Iteration:   718charge 0 multiplicity 1
 C         1.434457         0.308241        -0.018171
 C        -0.004385        -0.037384        -0.164537
 C        -1.167775        -0.159270         0.135084
 C        -2.553037        -0.200801         0.176360
 O        -3.177941         1.185517         0.199959
 C        -3.093138        -1.018848        -1.016899
 O        -4.421317        -1.473608        -0.755462
 C        -3.461298        -2.470471        -0.767632
 C        -3.388825        -3.373896        -1.931023
 H         1.893656         0.935063        -0.773566
 H         1.526224         0.908381         0.876036
 H         2.098936        -0.586058         0.093855
 H        -3.082040        -0.584445         0.994143
 H        -2.358395         1.745419         0.054747
 H        -2.831684        -0.554824        -1.952723
 H        -3.085656        -2.746261         0.242684
 H        -3.974460        -4.365169        -1.782691
 H        -3.551326        -2.868674        -2.928951
 H        -2.354392        -3.722097        -2.191826
