19
Iteration:  2481
 C         1.360501         0.031770        -0.529211
 C         0.016136        -0.111746        -0.049474
 C        -1.186398        -0.132612         0.237931
 C        -2.620110        -0.235184         0.421549
 O        -3.082134         1.055063         0.725758
 C        -3.299017        -0.938599        -0.831293
 O        -4.567626        -1.644465        -0.670211
 C        -3.263770        -2.343259        -0.946958
 C        -3.128023        -2.837468        -2.422452
 H         1.809932        -0.983884        -0.574813
 H         1.341122         0.415850        -1.496134
 H         2.033258         0.517906         0.067366
 H        -2.993229        -0.939012         1.266665
 H        -3.207290         1.358176        -0.192672
 H        -3.311192        -0.212668        -1.624914
 H        -2.922546        -2.970793        -0.089855
 H        -3.362512        -3.851276        -2.542715
 H        -3.610830        -2.128296        -3.034854
 H        -2.044518        -2.853503        -2.493418
