19
Iteration:  3754charge 0 multiplicity 1
 C         1.349628         0.091618        -0.619870
 C        -0.006053        -0.042032        -0.013801
 C        -1.119949        -0.385136         0.331523
 C        -2.660779        -0.319871         0.514635
 O        -3.054319         0.889289         1.030960
 C        -3.267128        -0.823167        -0.805143
 O        -4.463988        -1.626469        -0.650007
 C        -3.378621        -2.247149        -1.213270
 C        -3.229896        -2.715078        -2.683549
 H         1.951023         0.744964        -0.071618
 H         1.730846        -0.928440        -0.387398
 H         1.372097         0.429402        -1.766294
 H        -3.053384        -1.084148         1.254778
 H        -2.228763         1.402103         0.982122
 H        -3.204875        -0.131630        -1.644193
 H        -2.860691        -2.977391        -0.559452
 H        -3.662910        -3.675321        -2.982939
 H        -3.884819        -1.931632        -3.214429
 H        -2.223681        -2.654478        -3.087431
