19
Iteration:  2772
 C         1.549960         0.309681        -0.230941
 C         0.145568         0.009260        -0.200568
 C        -1.038479        -0.231778         0.113067
 C        -2.514354        -0.421832         0.494874
 O        -3.211035         0.899133         0.765084
 C        -3.125377        -0.959418        -0.813092
 O        -4.484972        -1.478647        -0.667116
 C        -3.554698        -2.372655        -1.092524
 C        -3.496934        -2.960746        -2.522876
 H         1.622845         1.257385        -0.668124
 H         2.170946         0.334304         0.690431
 H         2.016251        -0.366921        -1.020673
 H        -2.858514        -1.122203         1.338558
 H        -2.636012         1.606890         0.432158
 H        -3.100756        -0.276094        -1.644403
 H        -3.211318        -3.206499        -0.394257
 H        -4.356893        -3.667823        -2.585050
 H        -3.678151        -2.184172        -3.266929
 H        -2.531300        -3.459713        -2.695683
