19
Iteration:  3085
 C         1.513585        -0.045717        -0.228963
 C         0.031396        -0.078725        -0.284035
 C        -1.151795        -0.042967        -0.008199
 C        -2.505260        -0.310511         0.467214
 O        -3.239866         0.917698         0.808592
 C        -3.299138        -0.825028        -0.848823
 O        -4.450599        -1.759030        -0.437449
 C        -3.294814        -2.268707        -1.143707
 C        -3.392118        -2.723985        -2.615843
 H         1.988804        -0.485378         0.839086
 H         1.937377        -0.592009        -1.147273
 H         1.853624         0.948099        -0.292971
 H        -2.501934        -1.147784         1.142659
 H        -2.704178         1.617434         1.238177
 H        -3.634539        -0.050549        -1.507839
 H        -2.628622        -2.799351        -0.514274
 H        -3.641933        -3.810520        -2.834370
 H        -4.159878        -2.012061        -3.085343
 H        -2.398965        -2.551094        -3.098929
