19
Iteration:  3434
 C         1.531636         0.305318        -0.413963
 C         0.138928        -0.068066        -0.037441
 C        -1.046236        -0.346874         0.169234
 C        -2.463379        -0.404593         0.489412
 O        -3.167447         0.765072         0.890223
 C        -3.221079        -0.845799        -0.838274
 O        -4.510939        -1.466853        -0.686015
 C        -3.442077        -2.222032        -1.187636
 C        -3.536527        -2.910584        -2.623293
 H         1.818138         0.010797        -1.333611
 H         1.518644         1.393801        -0.317511
 H         2.311604        -0.093009         0.392852
 H        -2.697270        -1.248938         1.199620
 H        -2.590696         1.253777         1.520727
 H        -3.338773        -0.043002        -1.533954
 H        -3.044895        -2.761597        -0.350493
 H        -4.365941        -3.623595        -2.576143
 H        -3.724408        -2.160341        -3.317397
 H        -2.676343        -3.478912        -2.921600
