19
Iteration:  3151charge 0 multiplicity 1
 C         1.407366        -0.079872        -0.383369
 C         0.063425         0.012664         0.046465
 C        -1.153393        -0.086770         0.161529
 C        -2.561974        -0.234194         0.482973
 O        -3.140494         0.974123         0.748792
 C        -3.357969        -0.832251        -0.904032
 O        -4.365169        -1.885573        -0.444235
 C        -3.144526        -2.200463        -1.289757
 C        -3.485367        -2.729773        -2.628028
 H         2.385285         0.199819         0.270401
 H         1.482126        -1.188245        -0.600152
 H         1.455257         0.517075        -1.204247
 H        -2.705513        -0.873339         1.339478
 H        -2.887830         1.209671         1.651910
 H        -3.632784        -0.071004        -1.602353
 H        -2.465294        -2.792102        -0.737635
 H        -4.219629        -3.589274        -2.623896
 H        -3.985280        -1.897933        -3.171378
 H        -2.649755        -3.012483        -3.291458
