19
Iteration:    99charge 0 multiplicity 1
 C         1.635380         0.312431        -0.138092
 C         0.169465        -0.003519         0.176662
 C        -1.053567        -0.101217         0.081570
 C        -2.641917        -0.147465         0.073664
 O        -3.362587         1.151492         0.067538
 C        -3.116100        -1.037120        -1.037917
 O        -4.545879        -1.445644        -0.889363
 C        -3.494780        -2.414761        -0.660154
 C        -3.311422        -3.486126        -1.692820
 H         2.123415         1.057636         0.538045
 H         2.389571        -0.523340         0.035475
 H         1.518227         0.580838        -1.228402
 H        -2.920970        -0.551848         1.012198
 H        -2.855692         1.743717        -0.528846
 H        -2.782166        -0.715426        -2.020330
 H        -3.357782        -2.834428         0.238962
 H        -4.154588        -4.154870        -1.568197
 H        -3.369047        -3.145488        -2.730785
 H        -2.419321        -4.088788        -1.533054
