19
Iteration:  2593charge 0 multiplicity 1
 C         1.544930        -0.013069        -0.282133
 C         0.140739         0.027674        -0.111744
 C        -1.073630         0.005038        -0.027972
 C        -2.498837        -0.226360         0.394546
 O        -3.312580         1.002185         0.681780
 C        -3.316178        -0.892018        -0.819755
 O        -4.504486        -1.723216        -0.507186
 C        -3.393110        -2.327865        -1.100504
 C        -3.346246        -2.906285        -2.473237
 H         2.050175        -0.236525         0.633471
 H         1.765573        -0.863736        -0.961210
 H         1.830488         0.987617        -0.698203
 H        -2.411588        -0.848352         1.369216
 H        -2.916988         1.191466         1.556007
 H        -3.558167        -0.234652        -1.738022
 H        -2.609126        -3.004547        -0.511510
 H        -3.817038        -3.868189        -2.739836
 H        -3.741409        -2.213218        -3.235098
 H        -2.329270        -3.258857        -2.694393
