19
Iteration:  3356
 C         1.523501         0.047574        -0.454846
 C         0.123586        -0.016445        -0.162662
 C        -1.041896        -0.066141         0.223835
 C        -2.483593        -0.343293         0.534178
 O        -3.330023         0.688744         0.847882
 C        -3.237486        -0.854567        -0.731951
 O        -4.468159        -1.528607        -0.642756
 C        -3.314983        -2.293309        -1.158296
 C        -3.478625        -2.743003        -2.598989
 H         1.521493         0.442585        -1.395221
 H         2.045279         0.801398         0.194602
 H         2.023298        -1.064863        -0.541304
 H        -2.594002        -1.163885         1.262395
 H        -2.840198         1.483900         1.153270
 H        -3.125510        -0.115390        -1.559939
 H        -3.153691        -3.038275        -0.429670
 H        -4.014230        -3.616993        -2.808232
 H        -3.834236        -2.026226        -3.306211
 H        -2.456572        -2.924034        -2.932696
