19
Iteration:  3895charge 0 multiplicity 1
 C         1.410433        -0.052782        -0.527914
 C        -0.018752        -0.200649        -0.114911
 C        -1.214740        -0.049854         0.207255
 C        -2.626403        -0.236316         0.398507
 O        -3.189525         0.703680         1.224117
 C        -3.286367        -0.734876        -0.885665
 O        -4.437853        -1.602080        -0.651460
 C        -3.256994        -2.217472        -1.208093
 C        -3.213469        -2.699320        -2.618366
 H         1.695713         0.592017        -1.381142
 H         2.150168         0.029692         0.245151
 H         1.739610        -1.011522        -0.985567
 H        -2.641501        -1.196189         0.867550
 H        -2.668124         1.529451         1.182289
 H        -3.281918        -0.105943        -1.802399
 H        -2.874838        -2.844899        -0.413888
 H        -3.491107        -3.721130        -2.865350
 H        -3.991079        -2.035573        -3.176541
 H        -2.239887        -2.456965        -3.095194
