19
Iteration:   876charge 0 multiplicity 1
 C         1.586022         0.278326         0.017504
 C         0.113145         0.019272         0.087400
 C        -1.125797         0.032028         0.002577
 C        -2.563922        -0.272675         0.080629
 O        -3.217248         1.066319         0.076851
 C        -3.133677        -1.032883        -0.933913
 O        -4.441755        -1.457225        -0.569507
 C        -3.431430        -2.444112        -0.862395
 C        -3.489372        -3.345282        -2.074099
 H         1.954485        -0.672367        -0.232134
 H         1.580232         1.041231        -0.811373
 H         2.047089         0.584708         0.909952
 H        -2.773763        -0.726732         1.002249
 H        -3.439923         1.235613         0.984870
 H        -3.189229        -0.569237        -1.948383
 H        -2.833488        -2.747217         0.018936
 H        -4.273721        -4.126296        -1.999361
 H        -3.652340        -2.765698        -3.001917
 H        -2.441925        -3.690196        -2.150982
