19
Iteration:  2509
 C         1.351469         0.020851        -0.502747
 C         0.009471        -0.192659        -0.115454
 C        -1.189404        -0.246522         0.220793
 C        -2.610562        -0.138678         0.497697
 O        -3.291739         1.072522         0.711452
 C        -3.179481        -0.853320        -0.747503
 O        -4.412974        -1.627454        -0.651897
 C        -3.180017        -2.305939        -1.029866
 C        -3.265817        -2.945888        -2.476818
 H         2.032472        -0.847176        -0.220791
 H         1.473452         0.279258        -1.598641
 H         1.879544         0.875027         0.083622
 H        -2.944818        -0.702882         1.326442
 H        -2.706485         1.610214         0.160380
 H        -3.243118        -0.044809        -1.504159
 H        -2.825799        -2.944507        -0.242456
 H        -3.605275        -3.996709        -2.256656
 H        -3.877647        -2.292439        -3.211317
 H        -2.249219        -2.997917        -2.910375
