19
Iteration:  2890
 C         1.444860         0.227156        -0.393112
 C         0.096019         0.002830        -0.119151
 C        -1.069614        -0.216641         0.128645
 C        -2.485461        -0.326981         0.382191
 O        -3.198786         0.751754         0.958046
 C        -3.118080        -0.977049        -0.812946
 O        -4.449603        -1.351533        -0.813272
 C        -3.508515        -2.367674        -1.014471
 C        -3.407883        -2.904304        -2.432902
 H         1.800764         0.059245        -1.351223
 H         1.567913         1.352184        -0.340418
 H         2.027401        -0.472662         0.387560
 H        -2.642700        -1.175150         1.053296
 H        -3.239646         1.420407         0.240482
 H        -2.966217        -0.456654        -1.729799
 H        -3.389502        -3.223666        -0.246644
 H        -4.132935        -3.667105        -2.582519
 H        -3.733110        -2.137406        -3.167007
 H        -2.439610        -3.234807        -2.705241
