19
Iteration:  4350
 C         1.451064         0.058104        -0.527547
 C         0.057640        -0.116014        -0.081715
 C        -1.093626        -0.193852         0.212740
 C        -2.545731        -0.472768         0.491077
 O        -3.113781         0.603161         1.190063
 C        -3.398709        -0.795993        -0.730666
 O        -4.578242        -1.528924        -0.770665
 C        -3.275679        -2.111192        -1.308861
 C        -3.258066        -2.580030        -2.667738
 H         1.991336         0.828434        -0.009173
 H         1.931155        -0.926758        -0.328671
 H         1.341416         0.385908        -1.625701
 H        -2.659595        -1.342075         1.110440
 H        -2.383509         1.207084         1.449440
 H        -3.411905         0.050049        -1.412392
 H        -3.047260        -2.787673        -0.571827
 H        -3.881010        -3.463888        -2.661185
 H        -3.864213        -1.927515        -3.363257
 H        -2.299449        -2.566286        -3.206301
