19
Iteration:  3103
 C         1.493634        -0.036869        -0.280361
 C         0.017247        -0.197192        -0.252830
 C        -1.120359        -0.015733         0.115936
 C        -2.533830        -0.232375         0.319181
 O        -3.280227         0.871196         0.814629
 C        -3.373417        -0.849499        -0.725197
 O        -4.353884        -1.719279        -0.437474
 C        -3.178280        -2.198228        -1.222858
 C        -3.446454        -2.725146        -2.614806
 H         1.886876        -0.201944         0.659817
 H         1.997980        -0.802668        -0.837721
 H         1.746626         1.038557        -0.432758
 H        -2.706953        -1.027593         1.161237
 H        -2.569923         1.443157         1.181695
 H        -3.655892        -0.059092        -1.513187
 H        -2.497124        -2.877106        -0.654076
 H        -3.824870        -3.672157        -2.466983
 H        -4.122236        -2.267524        -3.294663
 H        -2.523111        -2.833463        -3.176792
