19
Iteration:  2734
 C         1.478932         0.327393        -0.239637
 C         0.053972        -0.087738        -0.130974
 C        -1.101614        -0.250592         0.177793
 C        -2.574619        -0.466334         0.423479
 O        -3.070866         0.916750         0.664985
 C        -3.180173        -0.965735        -0.896313
 O        -4.469766        -1.546321        -0.597555
 C        -3.367612        -2.376524        -1.098934
 C        -3.555848        -2.837132        -2.441528
 H         1.537687         1.529985        -0.143848
 H         2.138804        -0.071679         0.571804
 H         1.811420         0.023768        -1.256258
 H        -2.710458        -0.981081         1.337091
 H        -2.683166         1.353201        -0.119051
 H        -2.898390        -0.177111        -1.645003
 H        -3.012376        -2.907811        -0.205011
 H        -4.230364        -3.636070        -2.735086
 H        -3.871953        -1.855765        -2.856254
 H        -2.576503        -3.220052        -2.825115
