19
Iteration:   231charge 0 multiplicity 1
 C         1.550075         0.251222        -0.117019
 C         0.106286         0.082702         0.124599
 C        -1.148095        -0.067407         0.115436
 C        -2.620139        -0.145601         0.163899
 O        -3.279464         1.178121         0.013486
 C        -3.110335        -0.964998        -1.032562
 O        -4.439914        -1.480645        -0.833238
 C        -3.433303        -2.465407        -0.746977
 C        -3.372884        -3.534709        -1.753362
 H         1.599668         0.655153        -1.181222
 H         2.155322         0.871718         0.624983
 H         1.970900        -0.841995        -0.300195
 H        -3.039378        -0.671106         1.079200
 H        -2.786319         1.918525         0.406529
 H        -2.883357        -0.597660        -2.020745
 H        -3.160557        -2.707038         0.226406
 H        -4.205664        -4.210506        -1.649884
 H        -3.450221        -3.157679        -2.782907
 H        -2.462855        -4.158668        -1.637306
