19
Iteration:   846
 C         1.635343         0.333351         0.091367
 C         0.181162         0.003975        -0.024566
 C        -1.053578        -0.072460         0.053837
 C        -2.541595        -0.145967         0.106598
 O        -3.380627         1.030661         0.091773
 C        -3.117732        -1.049704        -0.935566
 O        -4.406077        -1.543116        -0.655448
 C        -3.370057        -2.428527        -0.812874
 C        -3.641963        -3.330369        -2.053538
 H         2.240266        -0.382366        -0.551908
 H         1.788417         1.304931        -0.356757
 H         1.934771         0.470126         1.168430
 H        -2.768514        -0.686387         1.083902
 H        -2.703784         1.731072         0.282195
 H        -3.077138        -0.550971        -1.910327
 H        -2.905492        -2.835960         0.063365
 H        -4.392755        -4.018552        -1.973849
 H        -4.009576        -2.644636        -2.802722
 H        -2.729603        -3.795201        -2.384799
