19
Iteration:  2111charge 0 multiplicity 1
 C         1.609653         0.235268        -0.273951
 C         0.118664         0.112596         0.019872
 C        -1.089699        -0.042422         0.103774
 C        -2.465209        -0.364912         0.227206
 O        -3.154301         0.915990         0.583420
 C        -3.224682        -0.893811        -0.869755
 O        -4.478655        -1.506285        -0.546155
 C        -3.515675        -2.397124        -1.014460
 C        -3.519396        -3.182541        -2.358266
 H         2.209282         0.549605         0.604097
 H         1.909743        -0.719006        -0.725524
 H         1.658477         1.015531        -1.012151
 H        -2.404515        -0.645944         1.340866
 H        -3.608098         1.255561        -0.173740
 H        -3.125142        -0.282087        -1.781280
 H        -3.167779        -3.047684        -0.205725
 H        -4.255494        -3.968324        -2.237410
 H        -3.619635        -2.470702        -3.212899
 H        -2.540574        -3.727211        -2.477165
