19
Iteration:  3706charge 0 multiplicity 1
 C         1.512215         0.153998        -0.405076
 C         0.028014        -0.131980        -0.190159
 C        -1.139344        -0.328994         0.108403
 C        -2.533044        -0.413962         0.475448
 O        -3.111887         0.830847         1.025792
 C        -3.389634        -0.799690        -0.772235
 O        -4.480806        -1.606085        -0.710882
 C        -3.291529        -2.193076        -1.166585
 C        -3.392849        -2.693232        -2.587858
 H         1.976889         0.538163         0.608582
 H         2.053450        -0.740161        -0.692712
 H         1.496055         0.999765        -1.036686
 H        -2.756395        -1.155468         1.211067
 H        -2.440365         1.505133         0.794657
 H        -3.529001         0.119305        -1.414223
 H        -2.908402        -3.051611        -0.497745
 H        -3.485460        -3.853100        -2.526347
 H        -4.226045        -2.302445        -3.247761
 H        -2.335697        -2.665724        -3.048411
