19
Iteration:  3238charge 0 multiplicity 1
 C         1.381163         0.046976        -0.427326
 C        -0.005062        -0.263491        -0.127875
 C        -1.186528        -0.263244         0.093660
 C        -2.582342        -0.339792         0.446761
 O        -3.159346         1.008762         0.752188
 C        -3.356569        -0.848628        -0.731951
 O        -4.415230        -1.733221        -0.473997
 C        -3.230456        -2.254948        -1.148262
 C        -3.267456        -2.586517        -2.633110
 H         1.628423         1.119301        -0.224940
 H         2.064714        -0.492455         0.273503
 H         1.667214        -0.175376        -1.385158
 H        -2.796420        -1.042352         1.383160
 H        -2.381129         1.323125         1.234478
 H        -3.564094        -0.069571        -1.446217
 H        -2.842483        -2.971307        -0.419256
 H        -3.515197        -3.654143        -2.820966
 H        -3.950382        -1.933393        -3.109256
 H        -2.263697        -2.292136        -2.870721
