19
Iteration:  4244charge 0 multiplicity 1
 C         1.453262         0.325538        -0.468423
 C         0.095053        -0.139718         0.033602
 C        -1.043454        -0.371915         0.348546
 C        -2.503387        -0.481426         0.448260
 O        -3.082639         0.730607         1.019214
 C        -3.207833        -0.945502        -0.812877
 O        -4.510006        -1.466249        -0.667437
 C        -3.465635        -2.330575        -1.272147
 C        -3.470681        -2.528462        -2.788556
 H         2.299687         0.121545         0.218150
 H         1.603090        -0.168951        -1.399237
 H         1.440928         1.312300        -0.731113
 H        -2.733258        -1.280447         1.169200
 H        -2.484021         1.042825         1.730087
 H        -3.183168        -0.258686        -1.614003
 H        -3.430996        -3.232498        -0.587869
 H        -4.323780        -3.024736        -3.158872
 H        -3.356292        -1.667668        -3.373988
 H        -2.744535        -3.302328        -3.002522
