19
Iteration:  1376charge 0 multiplicity 1
 C         1.538353         0.273556        -0.196416
 C        -0.017641         0.206852        -0.229403
 C        -1.128173        -0.094382         0.072033
 C        -2.511392        -0.345562         0.305521
 O        -3.064067         0.983834         0.454421
 C        -3.079670        -0.943697        -0.919242
 O        -4.547817        -1.402030        -0.760614
 C        -3.453208        -2.364909        -0.904388
 C        -3.532638        -3.410525        -2.095767
 H         2.066207        -0.438957        -0.848609
 H         1.937807         1.252718        -0.186281
 H         1.638331         0.000094         0.887856
 H        -2.569086        -0.998119         1.233969
 H        -2.502772         1.370653         1.112781
 H        -2.733357        -0.442254        -1.813463
 H        -3.358329        -2.870308         0.034878
 H        -4.254264        -4.270252        -1.860980
 H        -3.861631        -2.883825        -3.024716
 H        -2.473040        -3.755399        -2.322932
