19
Iteration:  4806
 C         1.269092         0.307076        -0.597356
 C         0.022438        -0.118699         0.097443
 C        -1.119756        -0.543151         0.297953
 C        -2.565639        -0.593026         0.567711
 O        -2.889493         0.552726         1.343689
 C        -3.240215        -0.846924        -0.825497
 O        -4.505203        -1.256384        -0.882072
 C        -3.469480        -2.243306        -1.377327
 C        -3.343865        -2.527447        -2.743077
 H         2.110457        -0.339869        -0.385616
 H         1.080973         0.400580        -1.696361
 H         1.562127         1.281259        -0.162084
 H        -2.743282        -1.563899         1.277787
 H        -2.306654         1.256836         0.975059
 H        -2.841904        -0.151195        -1.475322
 H        -3.165730        -2.944746        -0.646961
 H        -3.950242        -3.360716        -3.180527
 H        -3.801492        -1.725406        -3.377799
 H        -2.367312        -2.706024        -3.004968
