19
Iteration:  4625
 C         1.530687         0.000171        -0.312593
 C         0.051101        -0.216001        -0.171911
 C        -1.172749        -0.331831         0.087242
 C        -2.570508        -0.429258         0.531039
 O        -3.202590         0.806875         1.144234
 C        -3.362526        -0.832344        -0.659060
 O        -4.311787        -1.868446        -0.538125
 C        -3.177526        -2.075325        -1.394516
 C        -3.579959        -2.280996        -2.901056
 H         1.655676        -0.152864        -1.375530
 H         1.820565         1.053512        -0.186591
 H         2.261088        -0.603460         0.273709
 H        -2.591182        -1.213853         1.412779
 H        -2.811751         1.585672         0.724507
 H        -3.633358         0.045796        -1.312835
 H        -2.298899        -2.605510        -1.099961
 H        -3.844923        -3.325012        -2.875695
 H        -4.361399        -1.636032        -3.092256
 H        -2.696543        -2.085298        -3.570219
