19
Iteration:  1893charge 0 multiplicity 1
 C         1.396303        -0.144376        -0.453469
 C         0.079350        -0.034257         0.052473
 C        -1.152929         0.041263         0.118109
 C        -2.610565        -0.084333         0.254543
 O        -3.296283         1.121318         0.537951
 C        -3.353410        -0.895230        -0.869051
 O        -4.404729        -1.696329        -0.444636
 C        -3.218524        -2.386381        -0.969186
 C        -3.210533        -3.021665        -2.403715
 H         1.372598        -0.835682        -1.256957
 H         1.646292         0.784985        -1.032042
 H         2.003580        -0.367673         0.428003
 H        -2.635796        -0.742825         1.151782
 H        -2.637662         1.731203         0.925001
 H        -3.533597        -0.294857        -1.836890
 H        -2.777025        -3.045968        -0.135355
 H        -3.772048        -3.885103        -2.148219
 H        -3.566455        -2.360905        -3.220964
 H        -2.154435        -3.360994        -2.397169
