19
Iteration:  2569charge 0 multiplicity 1
 C         1.515696        -0.064154        -0.393524
 C         0.110180         0.108827         0.021184
 C        -1.140563        -0.074558         0.034578
 C        -2.648524        -0.246546         0.330855
 O        -3.259475         1.026155         0.685864
 C        -3.311794        -0.869422        -0.786901
 O        -4.462063        -1.670794        -0.561053
 C        -3.176438        -2.305766        -1.047553
 C        -3.356982        -2.936902        -2.492183
 H         2.135268        -0.609936         0.392123
 H         1.577552        -0.617856        -1.318823
 H         1.855803         0.934007        -0.520731
 H        -2.688576        -0.954857         1.213184
 H        -2.846652         1.145036         1.564835
 H        -3.571883        -0.199617        -1.655750
 H        -2.658952        -3.068790        -0.371267
 H        -3.985853        -3.831088        -2.467263
 H        -3.833583        -2.280909        -3.189970
 H        -2.449261        -3.414606        -2.915443
