19
Iteration:  2152
 C         1.627506         0.246584        -0.141478
 C         0.193462         0.112162        -0.112887
 C        -1.010503        -0.070302        -0.049061
 C        -2.493333        -0.249186         0.287528
 O        -3.224585         0.928141         0.559684
 C        -3.154049        -1.054544        -0.824128
 O        -4.490815        -1.594241        -0.580402
 C        -3.464706        -2.454928        -0.905059
 C        -3.628055        -3.019991        -2.360663
 H         2.001274         1.067124         0.674087
 H         2.212949        -0.635801         0.063448
 H         1.767833         0.697874        -1.134767
 H        -2.857016        -0.991858         1.104952
 H        -3.229189         1.339944        -0.359041
 H        -3.068277        -0.578300        -1.865668
 H        -3.148505        -3.111561        -0.100195
 H        -4.176004        -3.972746        -2.498929
 H        -4.329529        -2.177332        -2.626920
 H        -2.675428        -2.983648        -2.930481
