19
Iteration:  2407charge 0 multiplicity 1
 C         1.381714         0.023538        -0.493759
 C        -0.091192        -0.221628        -0.290040
 C        -1.222268        -0.084497         0.181491
 C        -2.650533        -0.187013         0.401459
 O        -3.251573         1.034349         0.881811
 C        -3.194048        -0.855859        -0.906350
 O        -4.459448        -1.566303        -0.687428
 C        -3.215750        -2.335602        -0.964855
 C        -3.145888        -2.989846        -2.327893
 H         1.905340        -0.575438        -1.220024
 H         1.683832         1.137505        -0.704387
 H         1.875480        -0.336949         0.514287
 H        -2.962703        -0.840827         1.208576
 H        -2.582330         1.692514         0.540530
 H        -2.895738        -0.227809        -1.773858
 H        -2.603367        -2.860627        -0.102237
 H        -3.831808        -3.860607        -2.481397
 H        -3.541352        -2.209219        -2.983225
 H        -2.136809        -3.479231        -2.580455
