19
Iteration:  4286charge 0 multiplicity 1
 C         1.332599         0.218140        -0.492755
 C        -0.017766        -0.088122        -0.170635
 C        -1.041699        -0.422938         0.415520
 C        -2.538514        -0.562618         0.625593
 O        -3.067398         0.648338         0.974881
 C        -3.174306        -0.848207        -0.739625
 O        -4.515699        -1.433757        -0.816735
 C        -3.345918        -2.201282        -1.271027
 C        -3.410007        -2.519130        -2.658245
 H         2.018374         0.467521         0.338933
 H         1.872233        -0.548115        -1.065836
 H         1.334534         1.135326        -1.120589
 H        -2.750358        -1.469795         1.324318
 H        -2.343305         1.168216         1.347777
 H        -3.041152        -0.063472        -1.435185
 H        -3.119218        -3.152336        -0.721702
 H        -4.183855        -3.281573        -2.804769
 H        -3.816346        -1.622481        -3.129424
 H        -2.404040        -2.872632        -3.036635
