19
Iteration:   810
 C         1.492138         0.312224         0.133027
 C         0.075901         0.275445        -0.004352
 C        -1.079593        -0.025232         0.053167
 C        -2.522847        -0.154600         0.146252
 O        -3.037432         1.105052         0.199801
 C        -3.119066        -1.009204        -0.971038
 O        -4.448129        -1.561800        -0.645084
 C        -3.518681        -2.601112        -0.880941
 C        -3.641859        -3.464167        -2.111692
 H         1.964785        -0.235616        -0.655955
 H         1.917176         1.360438        -0.018219
 H         2.037248        -0.187644         0.886382
 H        -2.606590        -0.471973         1.140872
 H        -2.910211         1.637055        -0.639997
 H        -3.052340        -0.569535        -1.998371
 H        -2.983249        -3.037017        -0.004592
 H        -4.340538        -4.231991        -1.880111
 H        -3.895903        -2.902278        -2.982579
 H        -2.700921        -3.928348        -2.384262
