19
Iteration:  4105charge 0 multiplicity 1
 C         1.632951         0.211842        -0.091919
 C         0.177767         0.005792        -0.061495
 C        -1.034697        -0.102670         0.115174
 C        -2.505876        -0.435120         0.283978
 O        -3.038927         0.614078         0.909750
 C        -3.382677        -0.813984        -0.866080
 O        -4.447951        -1.617691        -0.473908
 C        -3.496505        -2.252916        -1.284866
 C        -3.698598        -2.675526        -2.782835
 H         2.046471        -0.722488        -0.387428
 H         1.770850         1.048534        -0.733322
 H         2.095521         0.482594         0.868088
 H        -2.523986        -1.461498         0.834736
 H        -2.245866         1.063611         1.277674
 H        -3.564132        -0.223276        -1.719428
 H        -3.091782        -3.020002        -0.677492
 H        -3.991921        -3.739840        -2.978610
 H        -4.412355        -2.021465        -3.218032
 H        -2.708355        -2.490577        -3.248159
