19
Iteration:  4689charge 0 multiplicity 1
 C         1.476133        -0.064413        -0.493317
 C         0.089290         0.010285         0.011722
 C        -1.112472        -0.122081         0.158033
 C        -2.484756        -0.464255         0.544186
 O        -3.232761         0.590455         1.282471
 C        -3.240372        -0.791181        -0.726094
 O        -4.454007        -1.634049        -0.625107
 C        -3.339126        -2.179857        -1.385421
 C        -3.442419        -2.421322        -2.915664
 H         1.430499        -0.855586        -1.197354
 H         1.764366         0.729518        -1.153918
 H         2.283224        -0.312753         0.282335
 H        -2.471408        -1.314847         1.213773
 H        -2.840274         1.433816         0.991249
 H        -3.389796         0.049183        -1.393801
 H        -2.739827        -2.932787        -0.876125
 H        -3.947443        -3.389482        -3.129910
 H        -4.127927        -1.716677        -3.394205
 H        -2.439725        -2.494779        -3.428109
