19
Iteration:  2811
 C         1.555811         0.236176        -0.338629
 C         0.088711         0.162684         0.101586
 C        -1.095966        -0.148564         0.107910
 C        -2.482473        -0.397826         0.286872
 O        -3.113659         0.769039         0.952552
 C        -3.173036        -0.838326        -1.007606
 O        -4.505244        -1.499427        -0.792106
 C        -3.522581        -2.355935        -1.043635
 C        -3.529721        -3.006075        -2.404377
 H         1.473724         0.863340        -1.257276
 H         2.261866         0.557769         0.434085
 H         1.914089        -0.743912        -0.673220
 H        -2.451797        -1.255464         0.949679
 H        -2.482477         1.426887         0.597829
 H        -3.151319        -0.182983        -1.889567
 H        -3.248410        -2.890554        -0.147437
 H        -4.262938        -3.801613        -2.327257
 H        -3.734977        -2.417203        -3.343553
 H        -2.615728        -3.578235        -2.603038
