19
Iteration:   303
 C         1.575829         0.199231        -0.012633
 C         0.090404        -0.037564         0.024185
 C        -1.154661        -0.053092        -0.084212
 C        -2.584597        -0.128558         0.187111
 O        -3.277206         1.239812        -0.075375
 C        -3.208257        -0.975915        -0.916163
 O        -4.564842        -1.598195        -0.632678
 C        -3.415111        -2.439394        -0.774216
 C        -3.226647        -3.364471        -1.888614
 H         1.925593        -0.335440        -0.865396
 H         1.890669         1.265377        -0.058420
 H         2.124968        -0.306005         0.831437
 H        -2.835656        -0.403014         1.214418
 H        -2.952626         1.748700         0.727887
 H        -3.140829        -0.666639        -1.933027
 H        -3.167283        -2.815050         0.274232
 H        -3.709958        -4.360504        -1.782550
 H        -3.535346        -3.036053        -2.899112
 H        -2.170201        -3.633447        -1.913320
