19
Iteration:   673
 C         1.496073         0.114212        -0.241963
 C         0.085719         0.185555         0.224807
 C        -1.104390        -0.074932         0.162663
 C        -2.646115        -0.086874         0.228977
 O        -3.185498         1.214321         0.180169
 C        -3.144490        -0.985875        -0.992797
 O        -4.587757        -1.557407        -0.844481
 C        -3.450976        -2.456437        -0.844298
 C        -3.269714        -3.466488        -1.926059
 H         1.605602         1.032206        -0.837510
 H         2.216905         0.232670         0.497747
 H         1.631190        -0.843492        -0.786176
 H        -2.903563        -0.589902         1.132761
 H        -2.471239         1.833515         0.373301
 H        -2.853018        -0.500280        -1.890179
 H        -3.241961        -2.991685         0.078618
 H        -3.868077        -4.400870        -1.716735
 H        -3.274959        -3.073644        -2.990891
 H        -2.182613        -3.828076        -1.863189
