19
Iteration:   481charge 0 multiplicity 1
 C         1.375746        -0.110504        -0.072811
 C        -0.127113        -0.147081        -0.234062
 C        -1.269731         0.010132         0.066229
 C        -2.731571         0.085873         0.209649
 O        -3.249483         1.444221         0.139880
 C        -3.267478        -0.927888        -0.830461
 O        -4.417515        -1.725464        -0.622500
 C        -3.143171        -2.477905        -0.711806
 C        -2.981232        -3.315859        -2.043780
 H         1.610249        -0.468514         0.942493
 H         1.775789        -1.093203        -0.556777
 H         1.862830         0.803614        -0.314223
 H        -3.057959        -0.104546         1.247169
 H        -2.927553         1.745459        -0.793761
 H        -3.157344        -0.403994        -1.834887
 H        -2.686407        -3.038511         0.164592
 H        -3.480032        -4.311930        -1.796127
 H        -3.674691        -2.705090        -2.649801
 H        -1.974666        -3.195199        -2.573695
