19
Iteration:  1176charge 0 multiplicity 1
 C         1.463973        -0.035452        -0.216211
 C        -0.041653        -0.096439        -0.178325
 C        -1.278978        -0.084899         0.043488
 C        -2.640571        -0.102225         0.288558
 O        -3.232286         1.212173         0.283410
 C        -3.222685        -0.891424        -0.893478
 O        -4.491022        -1.623149        -0.563399
 C        -3.236763        -2.358845        -0.892175
 C        -3.098026        -3.157475        -2.111602
 H         2.001862         0.962521        -0.194689
 H         1.731793        -0.521025         0.654603
 H         1.728162        -0.698486        -1.059832
 H        -2.949915        -0.674562         1.189267
 H        -2.745704         1.636062         1.095892
 H        -3.413869        -0.324587        -1.787067
 H        -2.674135        -2.693573         0.046155
 H        -3.623483        -4.149216        -1.924181
 H        -3.919703        -2.813984        -2.807929
 H        -2.021574        -3.300309        -2.510020
