19
Iteration:  1540charge 0 multiplicity 1
 C         1.557657         0.208555        -0.425744
 C         0.176569         0.027279        -0.001699
 C        -0.993299        -0.066063         0.139807
 C        -2.514533        -0.299423         0.302905
 O        -3.303500         0.969208         0.599260
 C        -3.129266        -0.954200        -0.888500
 O        -4.466548        -1.378665        -0.736741
 C        -3.591210        -2.437366        -0.895942
 C        -3.429146        -3.222833        -2.162521
 H         2.369514         0.087396         0.372705
 H         1.894449        -0.336579        -1.273204
 H         1.640529         1.270382        -0.810150
 H        -2.599290        -0.718886         1.297445
 H        -3.726930         1.152154        -0.283545
 H        -2.848387        -0.381423        -1.748392
 H        -3.392129        -2.949192        -0.009299
 H        -4.173277        -4.041158        -2.203961
 H        -3.445981        -2.809709        -3.136524
 H        -2.429823        -3.668217        -2.099198
