19
Iteration:   996charge 0 multiplicity 1
 C         1.485109        -0.018915        -0.363487
 C         0.028442        -0.028246         0.015836
 C        -1.204432        -0.051411         0.233569
 C        -2.698450        -0.121274         0.276359
 O        -3.181149         1.186278         0.256765
 C        -3.231898        -0.893329        -0.906762
 O        -4.511795        -1.539588        -0.818604
 C        -3.384999        -2.383565        -0.783952
 C        -3.043519        -3.274431        -2.003393
 H         1.965169        -0.400106         0.476376
 H         1.650304        -0.496503        -1.391800
 H         1.769763         1.005929        -0.475076
 H        -2.945384        -0.758896         1.209507
 H        -3.867207         1.383388         1.019185
 H        -2.924237        -0.493471        -1.910628
 H        -2.909151        -2.793211         0.113353
 H        -3.856014        -4.110319        -1.891299
 H        -3.341923        -2.751783        -2.976337
 H        -1.968929        -3.548328        -2.096254
