19
Iteration:  2226charge 0 multiplicity 1
 C         1.547449         0.318709        -0.192137
 C         0.099532         0.033674         0.114005
 C        -1.109493        -0.230210        -0.068394
 C        -2.475679        -0.232290         0.225329
 O        -2.977040         1.036804         0.563357
 C        -3.432684        -0.883294        -0.967123
 O        -4.534691        -1.760696        -0.530774
 C        -3.304775        -2.319217        -1.019963
 C        -3.590106        -3.142856        -2.382285
 H         1.628407         1.420920        -0.297511
 H         2.187051         0.033075         0.640391
 H         1.810530        -0.098600        -1.174475
 H        -2.625428        -0.919673         1.075068
 H        -2.363945         1.412902         1.182578
 H        -3.667377        -0.121018        -1.757850
 H        -2.610238        -2.748255        -0.085356
 H        -4.319969        -3.859998        -2.001335
 H        -4.040632        -2.359075        -3.047711
 H        -2.728501        -3.602946        -2.851023
