19
Iteration:  1467charge 0 multiplicity 1
 C         1.507778         0.320438        -0.405012
 C         0.064679         0.054818        -0.035261
 C        -1.066851        -0.166442         0.218053
 C        -2.531009        -0.352327         0.321503
 O        -3.150728         1.024754         0.512167
 C        -3.049332        -1.008291        -0.900874
 O        -4.396168        -1.320015        -0.765640
 C        -3.503644        -2.449077        -0.885821
 C        -3.545133        -3.264793        -2.114218
 H         2.199088        -0.446570        -0.154630
 H         1.608728         0.640152        -1.492151
 H         1.791933         1.202722         0.104480
 H        -2.956128        -0.851450         1.211741
 H        -3.851068         0.797673        -0.085000
 H        -2.710103        -0.591927        -1.899844
 H        -3.461252        -2.988707         0.049229
 H        -4.457052        -3.894786        -2.224928
 H        -3.392061        -2.709888        -3.056424
 H        -2.638972        -3.915843        -2.055276
