19
Iteration:  3556
 C         1.556520         0.326005        -0.206157
 C         0.213046        -0.049437         0.006165
 C        -0.986742        -0.293046         0.041972
 C        -2.446712        -0.447775         0.309917
 O        -3.200397         0.765782         0.894161
 C        -3.234061        -0.892940        -0.920337
 O        -4.473632        -1.514643        -0.612064
 C        -3.361896        -2.413861        -1.177392
 C        -3.745386        -2.715645        -2.541846
 H         2.085245        -0.558270        -0.164100
 H         1.626720         0.694929        -1.236382
 H         1.905342         1.294518         0.421749
 H        -2.673770        -1.304589         1.118341
 H        -2.517544         1.471247         0.940514
 H        -3.380224        -0.089279        -1.743724
 H        -2.787447        -3.043417        -0.409565
 H        -4.410324        -3.636359        -2.519951
 H        -4.209782        -1.930765        -3.175832
 H        -2.896539        -2.972400        -3.160134
