19
Iteration:   725
 C         1.422182         0.356716         0.003056
 C         0.044124        -0.104619        -0.175492
 C        -1.140877        -0.169057         0.134517
 C        -2.571006        -0.217401         0.129995
 O        -3.185291         1.189882         0.191743
 C        -3.135623        -0.976314        -1.028599
 O        -4.395831        -1.429146        -0.726911
 C        -3.447372        -2.485393        -0.720495
 C        -3.384420        -3.424255        -1.971934
 H         1.820851         0.962384        -0.866332
 H         1.532118         0.941507         0.906613
 H         1.919823        -0.577610         0.290463
 H        -2.857483        -0.751709         1.125147
 H        -2.568492         1.873746        -0.023334
 H        -2.872202        -0.458939        -1.969470
 H        -3.207988        -2.989705         0.177287
 H        -4.003991        -4.279537        -1.972258
 H        -3.697804        -2.771850        -2.793104
 H        -2.322193        -3.752963        -2.063998
