19
Iteration:  3014charge 0 multiplicity 1
 C         1.475538         0.167779        -0.380178
 C         0.081135        -0.111411        -0.097028
 C        -1.070222        -0.329105         0.194237
 C        -2.565483        -0.335330         0.405324
 O        -3.162272         0.980815         0.774553
 C        -3.345757        -0.848207        -0.832515
 O        -4.515521        -1.626864        -0.512536
 C        -3.318280        -2.270005        -1.141417
 C        -3.384590        -2.858902        -2.638538
 H         2.119544        -0.758483        -0.220842
 H         1.514654         0.502298        -1.434595
 H         1.913798         0.979365         0.390416
 H        -2.730608        -0.954490         1.299928
 H        -2.472463         1.436961         1.309925
 H        -3.497828         0.034132        -1.512976
 H        -2.514222        -2.741598        -0.453517
 H        -3.787571        -3.853896        -2.738119
 H        -3.912680        -2.190406        -3.253204
 H        -2.372354        -2.986715        -2.968329
