19
Iteration:  1663charge 0 multiplicity 1
 C         1.463594         0.120098        -0.352572
 C         0.086850        -0.092125         0.060690
 C        -1.146190        -0.185743         0.000557
 C        -2.540560        -0.208163         0.282323
 O        -3.215201         1.077209         0.404471
 C        -3.301189        -0.884317        -0.885327
 O        -4.496951        -1.566230        -0.437829
 C        -3.367490        -2.355985        -0.871987
 C        -3.253523        -3.046504        -2.317663
 H         1.967856         1.089220        -0.296555
 H         2.242925        -0.678311        -0.069642
 H         1.499276        -0.034216        -1.454589
 H        -2.862441        -0.886545         1.035648
 H        -3.107385         1.339762         1.323898
 H        -3.326244        -0.459661        -1.919028
 H        -2.809130        -2.768013        -0.113088
 H        -3.720025        -4.052179        -2.496297
 H        -3.681999        -2.382609        -3.114849
 H        -2.221166        -3.387810        -2.627760
