19
Iteration:  4493charge 0 multiplicity 1
 C         1.509031        -0.006888        -0.376006
 C         0.061219        -0.183887        -0.027799
 C        -1.162328        -0.293593         0.176599
 C        -2.633346        -0.418721         0.579988
 O        -3.104239         0.884573         0.951680
 C        -3.418819        -0.832118        -0.661102
 O        -4.275040        -1.902315        -0.562342
 C        -3.125579        -2.077274        -1.424924
 C        -3.626918        -2.340438        -2.834898
 H         1.498220         0.867926        -1.002487
 H         2.143569         0.172985         0.466704
 H         1.861596        -0.748725        -1.137229
 H        -2.855912        -1.224369         1.322396
 H        -2.651919         1.121587         1.775043
 H        -3.695721        -0.022489        -1.268672
 H        -2.499689        -2.756427        -1.050678
 H        -3.802141        -3.341405        -3.111167
 H        -4.427355        -1.764669        -3.155768
 H        -2.842379        -2.088110        -3.510685
