19
Iteration:   266charge 0 multiplicity 1
 C         1.381258         0.198585         0.019005
 C        -0.058730         0.107382        -0.307033
 C        -1.171639        -0.029630         0.149591
 C        -2.622108        -0.157118         0.245351
 O        -3.116344         1.253032        -0.025616
 C        -3.060171        -1.069987        -0.955094
 O        -4.404016        -1.553337        -0.788314
 C        -3.383893        -2.445698        -0.695893
 C        -3.364652        -3.454962        -1.842802
 H         2.050223         0.208717        -0.928515
 H         1.773993         1.081482         0.601898
 H         1.590936        -0.851248         0.645742
 H        -2.911369        -0.603925         1.227790
 H        -3.018530         1.823743         0.740003
 H        -2.663751        -0.605433        -1.893788
 H        -3.171932        -2.963794         0.226414
 H        -4.094540        -4.246927        -1.578029
 H        -3.668183        -2.858648        -2.710172
 H        -2.311018        -3.832293        -1.980071
