19
Iteration:  1640
 C         1.490561         0.092192        -0.329179
 C         0.033272         0.049113        -0.156503
 C        -1.167760        -0.170708         0.047025
 C        -2.571022        -0.238054         0.337114
 O        -3.141566         1.101565         0.538024
 C        -3.300088        -0.877407        -0.875809
 O        -4.529738        -1.626750        -0.670501
 C        -3.287001        -2.339841        -0.945638
 C        -3.323897        -3.093314        -2.159354
 H         1.908527         0.987045         0.191062
 H         2.038383        -0.833889         0.018786
 H         1.921739         0.282548        -1.346722
 H        -2.895900        -0.894757         1.123702
 H        -2.553270         1.353823         1.314622
 H        -3.230718        -0.316923        -1.821237
 H        -3.070233        -2.959746        -0.130944
 H        -3.849386        -4.063649        -2.047696
 H        -3.776458        -2.554033        -3.002597
 H        -2.355938        -3.537084        -2.477368
