19
Iteration:  2224charge 0 multiplicity 1
 C         1.537012         0.321905        -0.176069
 C         0.107591         0.040960         0.083789
 C        -1.086114        -0.238421        -0.050803
 C        -2.505000        -0.220864         0.211794
 O        -2.983483         1.037173         0.567408
 C        -3.423381        -0.879974        -0.975707
 O        -4.532828        -1.759473        -0.528802
 C        -3.287455        -2.324573        -1.010997
 C        -3.597060        -3.130749        -2.381946
 H         1.645619         1.338157        -0.262710
 H         2.242120         0.026649         0.638584
 H         1.794331        -0.058050        -1.186463
 H        -2.636850        -0.995060         1.106338
 H        -2.314286         1.428849         1.156166
 H        -3.657554        -0.087659        -1.692527
 H        -2.690895        -2.806960        -0.126271
 H        -4.311979        -3.900068        -2.003539
 H        -4.102674        -2.448810        -3.078082
 H        -2.760460        -3.648224        -2.852689
