19
Iteration:  2434
 C         1.378481         0.005301        -0.502018
 C        -0.025432        -0.096073        -0.223960
 C        -1.232524        -0.202818         0.120204
 C        -2.586238        -0.204394         0.449062
 O        -3.172192         0.992965         0.781538
 C        -3.321973        -0.824293        -0.714298
 O        -4.550654        -1.610453        -0.720733
 C        -3.295080        -2.292724        -0.954397
 C        -3.023474        -2.924657        -2.349207
 H         1.918661        -0.854240        -1.044193
 H         1.592899         0.919423        -1.055515
 H         1.966477         0.032716         0.428205
 H        -2.849480        -0.753387         1.400856
 H        -2.864937         1.527954         0.001518
 H        -3.163100        -0.053785        -1.473541
 H        -3.031682        -3.014266        -0.245762
 H        -3.553653        -3.899793        -2.516753
 H        -3.314148        -2.162776        -3.131940
 H        -1.980821        -3.270475        -2.509823
