19
Iteration:   435
 C         1.460406        -0.121876        -0.154953
 C         0.024639         0.021235         0.262412
 C        -1.147860        -0.050909         0.008134
 C        -2.685831        -0.058564         0.054094
 O        -3.306142         1.281523        -0.014765
 C        -3.460112        -0.942454        -0.924640
 O        -4.486947        -1.672017        -0.398790
 C        -3.205769        -2.377034        -0.790207
 C        -3.002647        -3.229696        -2.071725
 H         1.982433        -0.895930         0.415692
 H         1.547454        -0.410023        -1.240399
 H         1.959378         0.868643        -0.024465
 H        -2.879414        -0.460364         1.060283
 H        -2.886668         1.617781        -0.853367
 H        -3.651117        -0.466915        -1.865007
 H        -2.654609        -2.790968         0.130798
 H        -3.470807        -4.193988        -1.984250
 H        -3.212163        -2.585849        -2.913689
 H        -1.960600        -3.196929        -1.988791
