19
Iteration:   577charge 0 multiplicity 1
 C         1.343775        -0.129814        -0.280208
 C        -0.028216        -0.024205         0.034644
 C        -1.248156         0.160233         0.133779
 C        -2.598787        -0.067678         0.200024
 O        -3.293808         1.276899         0.092343
 C        -3.189281        -1.000881        -0.895489
 O        -4.495058        -1.552539        -0.748222
 C        -3.238798        -2.409871        -0.782852
 C        -3.019858        -3.334862        -1.912866
 H         1.905352         0.563725         0.365153
 H         1.675399        -1.127303         0.211577
 H         1.566221        -0.173982        -1.395891
 H        -2.869379        -0.490247         1.277543
 H        -3.124647         1.740027         0.965774
 H        -3.188331        -0.664384        -1.930632
 H        -3.180103        -2.912625         0.259336
 H        -3.626510        -4.238805        -1.801079
 H        -2.909983        -2.890419        -2.893131
 H        -1.992228        -3.574294        -1.832804
