19
Iteration:   690
 C         1.477029         0.206184        -0.151109
 C         0.020036         0.170861         0.077983
 C        -1.154154        -0.105256         0.139360
 C        -2.563045        -0.196362         0.252269
 O        -3.134732         1.182937         0.169531
 C        -3.262223        -0.944197        -0.914735
 O        -4.498131        -1.531611        -0.908890
 C        -3.388537        -2.462442        -0.800742
 C        -3.310004        -3.469527        -1.922969
 H         1.909809         0.787854        -0.985502
 H         2.061525         0.422749         0.829699
 H         1.802161        -0.772289        -0.529805
 H        -2.997062        -0.576398         1.243554
 H        -2.351191         1.718392         0.198471
 H        -3.000413        -0.423590        -1.916445
 H        -3.242951        -2.653548         0.290564
 H        -3.988126        -4.283933        -1.790471
 H        -3.678179        -3.019610        -2.821959
 H        -2.334081        -3.884194        -2.148080
