19
Iteration:  3896charge 0 multiplicity 1
 C         1.412113        -0.048449        -0.525431
 C        -0.019207        -0.204550        -0.120046
 C        -1.212557        -0.045250         0.204046
 C        -2.615576        -0.236838         0.408787
 O        -3.185505         0.697483         1.214191
 C        -3.290223        -0.731859        -0.887469
 O        -4.442667        -1.599648        -0.652876
 C        -3.258336        -2.215993        -1.200395
 C        -3.209333        -2.699944        -2.619458
 H         1.631670         0.562974        -1.326574
 H         2.134297         0.056784         0.255475
 H         1.734201        -1.032508        -0.979975
 H        -2.680793        -1.184563         0.870298
 H        -2.676781         1.523209         1.199558
 H        -3.291951        -0.125330        -1.777922
 H        -2.841456        -2.835637        -0.437767
 H        -3.504534        -3.711311        -2.879274
 H        -4.002171        -2.064345        -3.149491
 H        -2.249810        -2.450488        -3.129260
