19
Iteration:  3074charge 0 multiplicity 1
 C         1.530909        -0.017070        -0.246272
 C         0.033886         0.009056        -0.220615
 C        -1.153416        -0.114527        -0.069135
 C        -2.559922        -0.245878         0.366858
 O        -3.200108         0.898691         0.817580
 C        -3.306168        -0.889552        -0.735905
 O        -4.455383        -1.749224        -0.509866
 C        -3.318522        -2.321883        -1.102689
 C        -3.397383        -2.649763        -2.575756
 H         1.974127        -0.758010         0.680517
 H         1.947421        -0.589190        -1.164174
 H         1.976804         0.921226        -0.183111
 H        -2.694625        -0.933384         1.228744
 H        -2.517206         1.386167         1.324026
 H        -3.481437        -0.213547        -1.565330
 H        -2.681074        -2.975925        -0.565135
 H        -3.585034        -3.781803        -2.684451
 H        -4.147962        -2.174209        -3.298708
 H        -2.372850        -2.405234        -2.966112
