19
Iteration:  3201
 C         1.478808        -0.037577        -0.450239
 C         0.038911        -0.159269        -0.102337
 C        -1.139165        -0.242484         0.226591
 C        -2.578174        -0.340125         0.481547
 O        -3.284472         1.033483         0.634201
 C        -3.262657        -0.881223        -0.694073
 O        -4.394232        -1.814523        -0.501610
 C        -3.240354        -2.282153        -1.096377
 C        -3.391676        -2.534488        -2.654515
 H         1.833127         0.830925         0.070211
 H         2.095328        -0.820360        -0.011945
 H         1.721287         0.366710        -1.577880
 H        -2.603929        -0.879293         1.444874
 H        -2.808665         1.571104         1.295933
 H        -3.539682        -0.010894        -1.366212
 H        -2.610722        -3.058229        -0.556269
 H        -3.741289        -3.499875        -2.943475
 H        -4.050370        -1.772463        -3.122846
 H        -2.417764        -2.402983        -3.150972
