19
Iteration:  3943
 C         1.456209        -0.000643        -0.411214
 C         0.048160        -0.020562        -0.216414
 C        -1.070449        -0.337352         0.154237
 C        -2.561516        -0.408512         0.527372
 O        -3.246191         0.842208         1.059045
 C        -3.326171        -0.793980        -0.804889
 O        -4.500978        -1.597123        -0.600513
 C        -3.262598        -2.223522        -1.205252
 C        -3.330683        -2.633239        -2.750434
 H         1.660202         0.368277        -1.326104
 H         1.904309         0.664469         0.348866
 H         2.122410        -0.883921        -0.372567
 H        -2.579969        -1.215687         1.243227
 H        -2.513573         1.451410         1.260217
 H        -3.425368         0.069709        -1.445428
 H        -2.769148        -2.853129        -0.449647
 H        -3.484692        -3.756271        -2.875412
 H        -4.157481        -2.234131        -3.276045
 H        -2.355747        -2.409877        -3.228173
