19
Iteration:  2488charge 0 multiplicity 1
 C         1.373117         0.024591        -0.519061
 C        -0.012826        -0.147805        -0.051572
 C        -1.186062        -0.115358         0.235286
 C        -2.620688        -0.298541         0.445937
 O        -3.116576         1.086650         0.720741
 C        -3.291295        -0.891936        -0.813138
 O        -4.549691        -1.639137        -0.680172
 C        -3.212067        -2.361734        -0.968281
 C        -3.162494        -2.845522        -2.377953
 H         1.901624        -1.000186        -0.576050
 H         1.354413         0.418733        -1.564484
 H         2.082826         0.719680         0.046934
 H        -2.938504        -0.898611         1.295576
 H        -3.137069         1.421839        -0.204553
 H        -3.254707        -0.226122        -1.703046
 H        -2.875474        -3.029686        -0.235876
 H        -3.513823        -3.908752        -2.499991
 H        -3.613247        -2.157521        -3.170803
 H        -2.111544        -2.748152        -2.712864
