19
Iteration:  3560
 C         1.568795         0.322881        -0.198913
 C         0.182346        -0.043908         0.010835
 C        -0.989016        -0.302731         0.037381
 C        -2.460468        -0.417507         0.322163
 O        -3.220540         0.746338         0.885932
 C        -3.218021        -0.896891        -0.908627
 O        -4.450114        -1.528701        -0.607105
 C        -3.335734        -2.375878        -1.203450
 C        -3.773147        -2.707616        -2.537440
 H         2.265483        -0.577127        -0.159368
 H         1.644301         0.649430        -1.250349
 H         1.809677         1.161652         0.306338
 H        -2.524108        -1.244659         1.014245
 H        -2.512130         1.414379         0.851850
 H        -3.360136        -0.193404        -1.715852
 H        -2.935996        -3.010797        -0.419407
 H        -4.376255        -3.578756        -2.436599
 H        -4.245854        -1.895605        -3.139478
 H        -2.838386        -3.042839        -3.043262
