19
Iteration:   331
 C         1.530272         0.133619        -0.062388
 C         0.073061         0.025760         0.212017
 C        -1.110751        -0.032077        -0.008424
 C        -2.527882        -0.176687         0.026772
 O        -3.290045         1.225647        -0.029661
 C        -3.405282        -0.991599        -1.012382
 O        -4.574136        -1.603850        -0.555879
 C        -3.250968        -2.408443        -0.766594
 C        -3.192921        -3.315570        -1.916696
 H         1.880712        -0.725132        -0.750633
 H         1.662245         1.005181        -0.737194
 H         2.089535        -0.247171         0.865414
 H        -2.870389        -0.491845         1.037560
 H        -2.608171         1.875877         0.331065
 H        -3.418443        -0.684882        -2.119475
 H        -2.931366        -2.618386         0.221507
 H        -3.700436        -4.289286        -1.698786
 H        -3.643785        -2.760471        -2.743963
 H        -2.138857        -3.705606        -2.001516
