19
Iteration:  2480charge 0 multiplicity 1
 C         1.355630         0.032208        -0.532996
 C         0.028358        -0.100497        -0.049691
 C        -1.191082        -0.141737         0.239596
 C        -2.622562        -0.223845         0.417488
 O        -3.076371         1.046693         0.724002
 C        -3.301323        -0.940410        -0.827423
 O        -4.565758        -1.645848        -0.666797
 C        -3.282059        -2.344589        -0.948162
 C        -3.110621        -2.836542        -2.424800
 H         1.806253        -1.029252        -0.589374
 H         1.344615         0.422086        -1.489399
 H         2.011980         0.504950         0.104121
 H        -2.968547        -0.939591         1.271730
 H        -3.239516         1.408056        -0.180114
 H        -3.315379        -0.236450        -1.632258
 H        -2.946178        -2.910038        -0.102744
 H        -3.358594        -3.855458        -2.567830
 H        -3.642024        -2.113644        -3.023857
 H        -2.046073        -2.882579        -2.459488
