19
Iteration:   635
 C         1.436762         0.042288        -0.242355
 C        -0.032379        -0.090291        -0.011117
 C        -1.252864        -0.034619         0.203729
 C        -2.661846        -0.101511         0.304647
 O        -3.313331         1.121395         0.051675
 C        -3.069953        -0.933723        -0.904929
 O        -4.403879        -1.474629        -0.817109
 C        -3.295591        -2.359447        -0.742913
 C        -3.174566        -3.352725        -1.909275
 H         1.545218         1.117824        -0.530572
 H         2.181100        -0.378930         0.566594
 H         1.802041        -0.366183        -1.184772
 H        -3.117190        -0.460692         1.289226
 H        -3.004541         1.847769         0.552261
 H        -2.781579        -0.531653        -1.943706
 H        -3.109672        -2.748037         0.307876
 H        -3.957541        -4.089263        -1.974553
 H        -3.356192        -2.814421        -2.817453
 H        -2.235852        -3.839583        -1.692256
