19
Iteration:  4266charge 0 multiplicity 1
 C         1.337464         0.274376        -0.504383
 C         0.037338        -0.104521        -0.038412
 C        -1.104373        -0.448532         0.261151
 C        -2.488512        -0.600681         0.656920
 O        -3.105678         0.751040         0.964592
 C        -3.123664        -0.909012        -0.691681
 O        -4.456898        -1.401967        -0.709502
 C        -3.442378        -2.235855        -1.273743
 C        -3.444131        -2.567393        -2.823399
 H         1.948605         0.227031         0.442183
 H         1.760183        -0.371707        -1.236616
 H         1.389046         1.207935        -0.907709
 H        -2.639782        -1.348427         1.475037
 H        -2.481504         1.251049         1.510812
 H        -2.944119        -0.167890        -1.395717
 H        -3.019853        -3.060625        -0.624463
 H        -4.232656        -3.233761        -3.120958
 H        -3.563514        -1.718395        -3.427211
 H        -2.586260        -3.163908        -3.099111
