19
Iteration:  1795
 C         1.547019        -0.052513        -0.265368
 C         0.023505        -0.276028        -0.054626
 C        -1.162372        -0.066996        -0.118788
 C        -2.658502        -0.042700         0.304099
 O        -3.189402         1.264718         0.547211
 C        -3.518734        -0.842980        -0.721256
 O        -4.374896        -1.905003        -0.365671
 C        -3.119966        -2.196151        -1.075646
 C        -3.276868        -3.022043        -2.403615
 H         1.667651         0.234910        -1.305775
 H         1.907962         0.790475         0.477197
 H         1.954935        -1.053251        -0.019029
 H        -2.930779        -0.697600         1.207268
 H        -3.411146         1.596100        -0.326171
 H        -3.804627        -0.478860        -1.764094
 H        -2.565069        -2.668822        -0.331090
 H        -3.606190        -4.052456        -2.170232
 H        -4.023503        -2.478729        -3.059736
 H        -2.274596        -2.838130        -2.858201
