19
Iteration:  4802charge 0 multiplicity 1
 C         1.280876         0.286895        -0.576026
 C         0.039587        -0.112018         0.064043
 C        -1.100955        -0.541378         0.302494
 C        -2.564324        -0.577212         0.587000
 O        -2.896417         0.537841         1.341624
 C        -3.254299        -0.848149        -0.817059
 O        -4.550463        -1.264398        -0.895221
 C        -3.437258        -2.231031        -1.360780
 C        -3.346322        -2.551970        -2.743778
 H         2.218431        -0.378600        -0.399928
 H         0.871499         0.508019        -1.623032
 H         1.579145         1.288322        -0.268932
 H        -2.808111        -1.417811         1.167641
 H        -2.305714         1.263962         1.084251
 H        -2.794154        -0.104787        -1.628999
 H        -3.122138        -2.938040        -0.563886
 H        -4.030761        -3.245366        -3.251614
 H        -3.778647        -1.670776        -3.304700
 H        -2.195600        -2.682751        -3.075582
