19
Iteration:   258
 C         1.371572         0.174924        -0.040757
 C        -0.021337         0.155115        -0.202125
 C        -1.181507        -0.054723         0.131254
 C        -2.601257        -0.189248         0.216940
 O        -3.136945         1.236428        -0.018905
 C        -3.035562        -1.036286        -0.900270
 O        -4.426984        -1.502045        -0.835473
 C        -3.326049        -2.526750        -0.735053
 C        -3.376037        -3.417505        -1.805997
 H         2.024304         0.285704        -0.907592
 H         1.408883         1.033446         0.621303
 H         1.650991        -0.847418         0.436124
 H        -3.009802        -0.589081         1.152676
 H        -2.956138         1.864722         0.710747
 H        -2.792427        -0.651817        -1.930976
 H        -2.999166        -2.763421         0.357689
 H        -4.133998        -4.222810        -1.481406
 H        -3.780026        -2.982742        -2.747897
 H        -2.453086        -4.012593        -1.823489
