19
Iteration:  3209charge 0 multiplicity 1
 C         1.461905         0.031946        -0.421677
 C         0.019319        -0.243739        -0.127761
 C        -1.159431        -0.233655         0.191730
 C        -2.561367        -0.295072         0.483562
 O        -3.269610         0.971480         0.624780
 C        -3.310043        -0.890349        -0.695877
 O        -4.371521        -1.790110        -0.512934
 C        -3.198400        -2.285145        -1.149708
 C        -3.380354        -2.465202        -2.555298
 H         1.835088         1.042289         0.116837
 H         2.033511        -0.847426        -0.144981
 H         1.636695        -0.048555        -1.546344
 H        -2.771505        -0.853872         1.355307
 H        -2.600258         1.369305         1.212198
 H        -3.478398        -0.103040        -1.449398
 H        -2.885912        -3.096712        -0.465623
 H        -3.648375        -3.575806        -2.819228
 H        -4.096516        -1.755519        -3.029534
 H        -2.337499        -2.354505        -2.989832
