19
Iteration:     4
 C         1.486218         0.147129        -0.060466
 C         0.042951         0.051598        -0.006824
 C        -1.189729         0.011179         0.087606
 C        -2.617777        -0.076845         0.124335
 O        -3.224711         1.258848        -0.024917
 C        -3.154244        -1.006666        -0.924800
 O        -4.478881        -1.537829        -0.785600
 C        -3.357497        -2.468466        -0.685029
 C        -3.292742        -3.490327        -1.753061
 H         1.834414        -0.511718         0.676470
 H         1.915604        -0.246227        -0.920529
 H         1.848324         1.175319         0.084442
 H        -3.053375        -0.574462         1.018190
 H        -2.708437         1.697165        -0.768514
 H        -2.870153        -0.747750        -1.984026
 H        -3.025639        -2.816754         0.363909
 H        -3.990790        -4.300143        -1.598755
 H        -3.514800        -3.102475        -2.766075
 H        -2.299658        -3.986532        -1.817476
