19
Iteration:  4122
 C         1.627202         0.202906        -0.099751
 C         0.168241         0.041102         0.006665
 C        -1.031684        -0.166264        -0.069697
 C        -2.370055        -0.473041         0.258470
 O        -3.151585         0.656654         1.063636
 C        -3.299321        -0.901775        -0.954525
 O        -4.552992        -1.517149        -0.426555
 C        -3.474827        -2.293422        -1.322613
 C        -3.670264        -2.685825        -2.789085
 H         2.168573        -0.845913        -0.282719
 H         1.944580         0.852111        -0.970742
 H         1.966541         0.608250         0.859301
 H        -2.389699        -1.322378         0.912609
 H        -2.484812         1.272620         1.448362
 H        -3.507701         0.003554        -1.586069
 H        -2.790833        -2.934726        -0.664924
 H        -3.843631        -3.736976        -2.856430
 H        -4.538885        -2.180283        -3.302275
 H        -2.755645        -2.525528        -3.367223
