19
Iteration:  2651
 C         1.512232         0.200074        -0.217267
 C         0.068770        -0.019637        -0.140207
 C        -1.110626        -0.279087         0.022972
 C        -2.636206        -0.306133         0.397400
 O        -3.160884         0.953340         0.710252
 C        -3.293685        -0.864067        -0.869955
 O        -4.416999        -1.619934        -0.542212
 C        -3.260077        -2.328039        -1.089437
 C        -3.491059        -2.920902        -2.504208
 H         1.828657         0.680329         0.609384
 H         1.943951        -0.807395        -0.255905
 H         1.976227         0.737404        -1.090657
 H        -2.736515        -0.936950         1.340795
 H        -2.475724         1.638699         0.697678
 H        -3.305171        -0.247238        -1.738373
 H        -2.748599        -2.975698        -0.380648
 H        -3.969463        -3.845257        -2.192259
 H        -4.249342        -2.312625        -3.052251
 H        -2.600699        -2.940999        -3.092795
