19
Iteration:  4677charge 0 multiplicity 1
 C         1.421750        -0.076183        -0.518353
 C         0.071160        -0.036209         0.036618
 C        -1.107948        -0.104809         0.189239
 C        -2.556787        -0.465286         0.534163
 O        -3.168015         0.604808         1.250480
 C        -3.262903        -0.808723        -0.799481
 O        -4.342184        -1.671451        -0.536027
 C        -3.339397        -2.099394        -1.446225
 C        -3.487661        -2.443142        -2.916362
 H         1.577520        -0.838716        -1.200095
 H         1.805594         0.858659        -0.772642
 H         2.096219        -0.305659         0.426366
 H        -2.621394        -1.277843         1.145400
 H        -2.927520         1.436837         0.822933
 H        -3.470604         0.049917        -1.339288
 H        -2.837573        -2.938448        -0.987295
 H        -3.765124        -3.523150        -2.990176
 H        -4.136783        -1.665607        -3.379552
 H        -2.522067        -2.223509        -3.361331
