19
Iteration:   522
 C         1.373076        -0.169511        -0.169245
 C        -0.107629        -0.104412        -0.146281
 C        -1.270942         0.027624         0.148341
 C        -2.750705         0.010590         0.186913
 O        -3.306747         1.255689         0.146938
 C        -3.254347        -0.855915        -0.977396
 O        -4.430616        -1.631256        -0.648994
 C        -3.089978        -2.275593        -0.763777
 C        -2.959790        -3.354106        -1.900393
 H         1.865631         0.109733         0.772487
 H         1.685377        -1.238086        -0.261245
 H         1.833185         0.537966        -0.909487
 H        -3.085623        -0.628435         1.057899
 H        -2.630759         1.888755         0.025730
 H        -3.365546        -0.424226        -1.941350
 H        -2.961820        -2.537696         0.336501
 H        -3.381986        -4.337291        -1.781755
 H        -3.515019        -3.017509        -2.762594
 H        -2.040034        -3.557224        -2.335545
