19
Iteration:  4725charge 0 multiplicity 1
 C         1.474522         0.023969        -0.492138
 C        -0.017298        -0.075150        -0.230898
 C        -1.138556        -0.182106         0.244678
 C        -2.527832        -0.537014         0.537538
 O        -3.218421         0.506938         1.285431
 C        -3.172955        -0.751257        -0.808742
 O        -4.478997        -1.532639        -0.747262
 C        -3.370519        -2.184698        -1.193534
 C        -3.383386        -2.384433        -2.791125
 H         1.773469        -1.036231        -0.864471
 H         1.632101         0.882175        -1.256555
 H         2.212045         0.302090         0.270694
 H        -2.452795        -1.582473         1.127649
 H        -2.559680         1.235513         1.294913
 H        -3.167438         0.223727        -1.489226
 H        -2.930039        -3.089158        -0.674100
 H        -4.170635        -3.133223        -3.042392
 H        -3.409195        -1.425170        -3.347085
 H        -2.256373        -2.776116        -3.075402
