19
Iteration:  4102
 C         1.637871         0.235653        -0.096729
 C         0.162063        -0.003901        -0.051798
 C        -1.048380        -0.112894         0.125218
 C        -2.471081        -0.458388         0.295120
 O        -3.036346         0.640480         0.900717
 C        -3.379139        -0.818411        -0.874122
 O        -4.450624        -1.645189        -0.498812
 C        -3.485234        -2.251820        -1.300802
 C        -3.715306        -2.654561        -2.746840
 H         2.094710        -0.802025        -0.469423
 H         1.861339         1.051816        -0.752944
 H         1.950577         0.392154         0.873547
 H        -2.521316        -1.460612         0.804319
 H        -2.294253         1.114498         1.310081
 H        -3.618427        -0.129222        -1.677497
 H        -3.080658        -3.023382        -0.607486
 H        -3.972283        -3.644246        -2.937033
 H        -4.408226        -2.007146        -3.259758
 H        -2.736023        -2.538116        -3.180954
