19
Iteration:  2282charge 0 multiplicity 1
 C         1.589494         0.255955        -0.224685
 C         0.064050        -0.049554        -0.326233
 C        -1.073880        -0.233763         0.156665
 C        -2.558989        -0.335836         0.371903
 O        -3.223770         1.009346         0.471398
 C        -3.262335        -0.919785        -0.796330
 O        -4.479111        -1.632320        -0.536337
 C        -3.341553        -2.402371        -0.984349
 C        -3.463402        -2.901509        -2.376124
 H         1.824447         1.117870        -0.950507
 H         1.920043         0.474442         0.764152
 H         2.116155        -0.624518        -0.530780
 H        -2.865127        -0.812561         1.333002
 H        -2.634504         1.519407         1.092752
 H        -3.413837        -0.213502        -1.682535
 H        -3.017889        -3.119860        -0.054178
 H        -4.038296        -3.825510        -2.304535
 H        -3.788964        -2.198569        -3.226996
 H        -2.409227        -3.196260        -2.537254
