19
Iteration:  1600charge 0 multiplicity 1
 C         1.478755         0.132186        -0.258654
 C        -0.021372         0.044371        -0.324691
 C        -1.138207        -0.107563         0.023201
 C        -2.588282        -0.252185         0.316541
 O        -3.124313         1.095030         0.778399
 C        -3.193043        -0.913041        -0.908174
 O        -4.488151        -1.443722        -0.717544
 C        -3.405052        -2.360537        -0.937036
 C        -3.311580        -3.329371        -2.236940
 H         1.797926         0.609634         0.636886
 H         1.872129        -0.929872        -0.343416
 H         1.651375         0.775028        -1.090522
 H        -2.729677        -0.918352         1.215306
 H        -2.754110         1.884441         0.387418
 H        -2.904717        -0.498991        -1.928509
 H        -3.157080        -2.968215         0.011025
 H        -3.927993        -4.158033        -1.847814
 H        -3.707810        -2.837336        -3.182654
 H        -2.307566        -3.816541        -2.204482
