19
Iteration:  2545charge 0 multiplicity 1
 C         1.377395        -0.013048        -0.431181
 C        -0.047012        -0.067936        -0.098953
 C        -1.150926        -0.062839         0.289407
 C        -2.619028        -0.209313         0.350053
 O        -3.204117         0.972906         0.665453
 C        -3.188279        -0.764079        -0.886732
 O        -4.370146        -1.697602        -0.584321
 C        -3.172498        -2.281882        -1.035799
 C        -3.377793        -2.937503        -2.428215
 H         1.911829        -0.815727         0.262005
 H         1.560890        -0.319535        -1.442728
 H         1.713918         0.973140        -0.244252
 H        -2.769712        -1.046578         1.055614
 H        -2.655465         1.628327         1.128720
 H        -3.600595        -0.158627        -1.651119
 H        -2.711578        -2.985120        -0.402063
 H        -3.912893        -3.882678        -2.388243
 H        -3.912350        -2.351698        -3.189487
 H        -2.405576        -3.288061        -2.801969
