19
Iteration:  3618
 C         1.579914         0.168032        -0.248551
 C         0.168941         0.124053        -0.093418
 C        -0.992378        -0.105250         0.128832
 C        -2.471270        -0.343875         0.431028
 O        -3.172120         0.789572         1.009326
 C        -3.174067        -0.922496        -0.916490
 O        -4.471891        -1.658779        -0.579086
 C        -3.389669        -2.343039        -1.192419
 C        -3.752275        -2.795334        -2.733220
 H         1.969022        -0.480626         0.650807
 H         1.828213        -0.309023        -1.198437
 H         2.183601         1.016092        -0.052885
 H        -2.461799        -1.103629         1.148947
 H        -3.038403         1.437137         0.282799
 H        -3.540629        -0.211449        -1.630571
 H        -2.829281        -3.050291        -0.599634
 H        -4.654372        -3.459112        -2.690268
 H        -4.044982        -1.922342        -3.293256
 H        -2.841454        -3.283755        -3.270864
