19
Iteration:  1973charge 0 multiplicity 1
 C         1.320201         0.118809        -0.505783
 C        -0.015216        -0.122338        -0.151531
 C        -1.127564        -0.142468         0.250643
 C        -2.626712        -0.217531         0.387221
 O        -3.117796         1.120579         0.559404
 C        -3.103860        -0.971902        -0.801379
 O        -4.524546        -1.422850        -0.759190
 C        -3.398592        -2.420881        -0.919876
 C        -3.173811        -3.127556        -2.221077
 H         1.864388        -0.755642        -0.487389
 H         1.368166         0.496001        -1.558266
 H         1.959897         0.790370         0.055653
 H        -2.873967        -0.773275         1.361955
 H        -3.302821         1.099216         1.540754
 H        -2.722545        -0.428749        -1.649935
 H        -3.369944        -2.979115        -0.000810
 H        -3.643772        -4.090574        -2.376584
 H        -3.459962        -2.455902        -3.007208
 H        -2.146956        -3.332905        -2.424773
