19
Iteration:  4319charge 0 multiplicity 1
 C         1.356899         0.151230        -0.533360
 C         0.034990        -0.150364        -0.017279
 C        -1.107209        -0.371668         0.211152
 C        -2.563719        -0.427077         0.527831
 O        -3.102159         0.683831         1.198793
 C        -3.186753        -0.833892        -0.830260
 O        -4.478092        -1.452144        -0.705344
 C        -3.426796        -2.202398        -1.333495
 C        -3.318701        -2.577779        -2.693749
 H         1.883630         0.764113         0.219185
 H         1.886120        -0.696610        -0.948213
 H         1.070938         0.722842        -1.468626
 H        -2.796257        -1.374408         1.182780
 H        -2.376404         1.211848         1.544432
 H        -3.131193        -0.157328        -1.609763
 H        -3.086859        -3.038991        -0.638551
 H        -3.766335        -3.544204        -2.890250
 H        -3.726761        -1.883036        -3.400429
 H        -2.248369        -2.660567        -3.111957
