19
Iteration:  4150
 C         1.636969         0.182794        -0.089069
 C         0.128498         0.035026        -0.131742
 C        -1.094684        -0.127701        -0.031177
 C        -2.414241        -0.486412         0.382473
 O        -3.086564         0.551904         1.034722
 C        -3.263566        -0.835672        -0.881854
 O        -4.576331        -1.508342        -0.681738
 C        -3.364038        -2.274616        -1.228342
 C        -3.695409        -2.654043        -2.686527
 H         2.141012        -0.778386         0.077311
 H         1.780559         0.693118        -1.051419
 H         1.949119         0.972229         0.704648
 H        -2.353155        -1.489289         1.000707
 H        -2.462241         1.197134         1.423125
 H        -3.408128         0.059674        -1.523380
 H        -2.767222        -2.773624        -0.493022
 H        -4.084375        -3.742241        -2.676073
 H        -4.604392        -2.069894        -2.943164
 H        -2.896505        -2.733672        -3.445295
