19
Iteration:  1438
 C         1.513637         0.375113        -0.376083
 C         0.163499        -0.100663         0.057543
 C        -1.014419        -0.057284         0.129901
 C        -2.431137        -0.357381         0.267869
 O        -3.136090         0.978205         0.448928
 C        -3.200154        -0.964497        -0.894572
 O        -4.560698        -1.329232        -0.806259
 C        -3.524984        -2.383527        -0.913970
 C        -3.476464        -3.323566        -2.077006
 H         2.455068        -0.217236        -0.661172
 H         1.563765         0.976864        -1.299703
 H         1.777493         1.040533         0.518367
 H        -2.674330        -0.797946         1.230109
 H        -3.792809         0.668347         1.041216
 H        -2.848276        -0.437539        -1.803548
 H        -3.580629        -2.909267         0.157028
 H        -4.301077        -3.998464        -2.091260
 H        -3.240965        -2.818766        -3.041819
 H        -2.674841        -4.021864        -1.947582
