19
Iteration:  3169
 C         1.435329        -0.094934        -0.435327
 C         0.047514         0.029370         0.030818
 C        -1.152149        -0.064445         0.292206
 C        -2.571802        -0.330997         0.393686
 O        -3.140264         1.043164         0.691591
 C        -3.332228        -0.860767        -0.691983
 O        -4.345183        -1.851251        -0.474989
 C        -3.246382        -2.271150        -1.253691
 C        -3.470664        -2.690048        -2.728355
 H         2.047037         0.341863         0.214845
 H         1.814840        -1.126343        -0.448481
 H         1.630179         0.384510        -1.488578
 H        -2.588607        -1.014656         1.368313
 H        -2.990442         1.344625         1.599823
 H        -3.803757        -0.053883        -1.334825
 H        -2.545647        -3.017314        -0.750249
 H        -3.991922        -3.575007        -2.708285
 H        -3.962905        -2.004661        -3.416604
 H        -2.462629        -2.841038        -3.057838
