19
Iteration:  3483charge 0 multiplicity 1
 C         1.479745         0.440674        -0.225424
 C         0.073106        -0.063525        -0.135235
 C        -1.081449        -0.404112         0.058624
 C        -2.439800        -0.545560         0.377481
 O        -2.974100         0.823336         0.867529
 C        -3.273063        -0.908498        -0.868391
 O        -4.570954        -1.495762        -0.716188
 C        -3.498015        -2.284561        -1.116312
 C        -3.544963        -2.761928        -2.478527
 H         1.979154        -0.512397        -0.875275
 H         1.575778         1.451049        -0.732325
 H         1.967424         0.411978         0.740792
 H        -2.481174        -1.335058         1.091643
 H        -2.298724         1.026215         1.525336
 H        -3.015597        -0.296902        -1.775634
 H        -3.070888        -2.985784        -0.260052
 H        -4.195052        -3.635141        -2.707439
 H        -3.889884        -1.844747        -3.128184
 H        -2.549550        -3.080544        -2.922765
