19
Iteration:  1537
 C         1.538606         0.207494        -0.410486
 C         0.176041         0.044899        -0.022749
 C        -1.010282        -0.068755         0.155638
 C        -2.501334        -0.275759         0.313864
 O        -3.300547         0.984285         0.586789
 C        -3.127930        -0.966779        -0.861542
 O        -4.447386        -1.359375        -0.730656
 C        -3.596133        -2.452317        -0.920006
 C        -3.438830        -3.239813        -2.176728
 H         2.404885         0.015197         0.310559
 H         1.925310        -0.321631        -1.282001
 H         1.614407         1.282562        -0.791143
 H        -2.576284        -0.958071         1.328296
 H        -3.719322         1.180133        -0.235949
 H        -2.829445        -0.467490        -1.817151
 H        -3.386535        -3.045124         0.079788
 H        -4.164054        -4.033577        -2.174455
 H        -3.435411        -2.830746        -3.191699
 H        -2.459386        -3.678828        -2.134408
