19
Iteration:  3027charge 0 multiplicity 1
 C         1.479017         0.106575        -0.373624
 C         0.062332        -0.018729        -0.037908
 C        -1.116215        -0.215947         0.114830
 C        -2.507079        -0.395521         0.394662
 O        -3.096850         0.992350         0.751236
 C        -3.370972        -0.837782        -0.785374
 O        -4.516182        -1.716120        -0.517540
 C        -3.378254        -2.272364        -1.204570
 C        -3.329553        -2.778921        -2.555229
 H         2.129756        -0.895660        -0.075473
 H         1.752989         0.283229        -1.447937
 H         1.907256         0.990458         0.221308
 H        -2.746527        -1.159524         1.086481
 H        -2.600836         1.391279         1.483965
 H        -3.620295        -0.135727        -1.660835
 H        -3.142975        -3.092968        -0.510813
 H        -3.739987        -3.740515        -2.469719
 H        -3.980622        -2.271962        -3.257616
 H        -2.332421        -2.723147        -3.012358
