19
Iteration:  4440
 C         1.556911        -0.039276        -0.479093
 C         0.099582        -0.101118        -0.066184
 C        -1.077327        -0.220256         0.165607
 C        -2.593307        -0.364024         0.473931
 O        -3.284896         0.791553         1.121471
 C        -3.390844        -0.850694        -0.757497
 O        -4.413795        -1.788199        -0.487533
 C        -3.254252        -2.210268        -1.353180
 C        -3.401505        -2.380887        -2.860743
 H         2.089579         0.968579        -0.617832
 H         2.041101        -0.546043         0.366513
 H         1.709225        -0.717134        -1.304078
 H        -2.690815        -1.163086         1.140020
 H        -2.596100         1.155096         1.704743
 H        -3.623946        -0.086749        -1.432383
 H        -2.546916        -2.805327        -0.765735
 H        -4.082859        -3.083495        -3.244132
 H        -3.893179        -1.493233        -3.101338
 H        -2.611466        -2.185043        -3.618677
