19
Iteration:  3233charge 0 multiplicity 1
 C         1.399148         0.028635        -0.421047
 C        -0.035634        -0.266884        -0.114317
 C        -1.212484        -0.246240         0.108261
 C        -2.543008        -0.368140         0.453859
 O        -3.183237         1.000432         0.715184
 C        -3.320027        -0.861869        -0.759536
 O        -4.466416        -1.725954        -0.451527
 C        -3.171762        -2.276713        -1.085862
 C        -3.284093        -2.549980        -2.642344
 H         1.358332         1.092717        -0.097758
 H         2.124414        -0.521943         0.178900
 H         1.790307        -0.123756        -1.565902
 H        -2.633587        -0.951027         1.305838
 H        -2.372843         1.303425         1.188905
 H        -3.485079        -0.000983        -1.470211
 H        -2.667630        -2.847158        -0.287849
 H        -3.507111        -3.559103        -2.991995
 H        -4.039186        -1.846862        -3.102319
 H        -2.274957        -2.340810        -3.112064
