19
Iteration:  4405
 C         1.378843        -0.053704        -0.425143
 C        -0.014054        -0.142315        -0.207676
 C        -1.195978        -0.022049         0.088857
 C        -2.505184        -0.521200         0.563760
 O        -3.170792         0.641828         1.094121
 C        -3.278841        -0.799114        -0.683583
 O        -4.454338        -1.642194        -0.603087
 C        -3.180086        -2.115464        -1.266660
 C        -3.394852        -2.463724        -2.835496
 H         1.812326         0.880269        -0.143317
 H         1.778147        -0.762623         0.301900
 H         1.817048        -0.378711        -1.429079
 H        -2.542228        -1.282868         1.271385
 H        -2.486062         1.251491         1.401851
 H        -3.327712         0.084407        -1.254826
 H        -2.698270        -2.783989        -0.678907
 H        -3.898910        -3.350717        -3.122995
 H        -3.871644        -1.586621        -3.096265
 H        -2.413668        -2.551342        -3.179566
