19
Iteration:  3423
 C         1.536393         0.266379        -0.410674
 C         0.102579         0.005395        -0.032906
 C        -1.047336        -0.292600         0.241318
 C        -2.525153        -0.435509         0.442342
 O        -3.140164         0.754188         0.886388
 C        -3.233392        -0.816143        -0.812952
 O        -4.510348        -1.490383        -0.719481
 C        -3.400298        -2.287776        -1.236966
 C        -3.553816        -2.838503        -2.542144
 H         1.627155        -0.003872        -1.383714
 H         1.815435         1.345651        -0.428433
 H         2.404659        -0.319036         0.184876
 H        -2.552420        -1.174742         1.273324
 H        -2.593673         1.233879         1.518980
 H        -3.067600        -0.144479        -1.634556
 H        -3.008735        -3.106949        -0.641709
 H        -4.391404        -3.542227        -2.481265
 H        -3.828739        -2.236974        -3.325105
 H        -2.656475        -3.374605        -2.799990
