19
Iteration:  2017charge 0 multiplicity 1
 C         1.505784         0.165588        -0.536651
 C         0.071460         0.047378        -0.049587
 C        -1.065622        -0.261682         0.208361
 C        -2.505587        -0.313904         0.417672
 O        -3.197126         0.981797         0.569708
 C        -3.212461        -0.922062        -0.846150
 O        -4.694015        -1.362226        -0.843063
 C        -3.516860        -2.355115        -0.874325
 C        -3.147479        -3.144994        -2.185675
 H         2.217361        -0.440317        -0.042749
 H         1.546542         0.047108        -1.676248
 H         1.831410         1.211454        -0.279772
 H        -2.725254        -1.150395         1.181566
 H        -2.891492         1.477588         1.393115
 H        -2.955458        -0.454113        -1.808007
 H        -3.269318        -2.865449         0.094482
 H        -3.707132        -4.105975        -2.139752
 H        -3.336247        -2.583052        -3.067108
 H        -2.124746        -3.507406        -2.171440
