19
Iteration:  1909
 C         1.410693        -0.092161        -0.498661
 C         0.017514        -0.040989         0.040828
 C        -1.194991        -0.067090         0.147039
 C        -2.652627        -0.177738         0.299814
 O        -3.291105         1.127150         0.508380
 C        -3.203115        -0.813294        -0.912936
 O        -4.411934        -1.692624        -0.492119
 C        -3.189039        -2.278317        -0.986227
 C        -3.241191        -3.079609        -2.243080
 H         1.447000        -1.045014        -1.112103
 H         1.604163         0.806827        -1.073801
 H         2.285399        -0.147904         0.191362
 H        -2.996528        -0.898841         1.104821
 H        -2.894068         1.505156         1.285675
 H        -3.309965        -0.211952        -1.775736
 H        -2.506634        -2.693903        -0.303691
 H        -4.095840        -3.776952        -2.412084
 H        -3.485221        -2.323309        -3.009260
 H        -2.279839        -3.454687        -2.589970
