19
Iteration:  1867charge 0 multiplicity 1
 C         1.511510        -0.188765        -0.321741
 C         0.003897         0.008420        -0.153718
 C        -1.169940         0.079158        -0.002722
 C        -2.613040        -0.094024         0.431288
 O        -3.291115         1.139813         0.526322
 C        -3.305476        -0.933887        -0.791867
 O        -4.462761        -1.815124        -0.477981
 C        -3.240015        -2.350553        -0.963484
 C        -3.218373        -2.941102        -2.416062
 H         1.517498        -0.767373        -1.327008
 H         2.004838         0.739363        -0.536734
 H         1.921154        -0.721764         0.541471
 H        -2.557698        -0.572314         1.381424
 H        -2.712919         1.812388         0.093745
 H        -3.538500        -0.290708        -1.616386
 H        -2.621321        -2.887477        -0.098130
 H        -3.567451        -3.919629        -2.057062
 H        -3.946840        -2.478695        -3.087079
 H        -2.177356        -2.941453        -2.722712
