19
Iteration:  2027charge 0 multiplicity 1
 C         1.455304         0.188623        -0.487626
 C         0.078009        -0.015390        -0.103497
 C        -1.094986        -0.193010         0.224331
 C        -2.546939        -0.301991         0.377498
 O        -3.186110         0.962781         0.624374
 C        -3.222589        -0.912743        -0.893236
 O        -4.579086        -1.370639        -0.782005
 C        -3.521531        -2.350680        -1.004394
 C        -3.208268        -3.194072        -2.121456
 H         2.152150        -0.343409         0.086441
 H         1.748665         0.016728        -1.610453
 H         1.753910         1.271198        -0.393197
 H        -2.728083        -0.939634         1.292918
 H        -2.582201         1.562705         1.175897
 H        -2.761834        -0.405213        -1.747441
 H        -3.396029        -2.979468        -0.005598
 H        -3.846991        -4.059368        -2.315687
 H        -3.338540        -2.682599        -3.069505
 H        -2.147691        -3.441962        -2.073859
