19
Iteration:  4017
 C         1.499171         0.240701        -0.299174
 C         0.138670        -0.144438         0.009805
 C        -1.023326        -0.398971         0.240421
 C        -2.509354        -0.490136         0.451852
 O        -3.113699         0.908367         0.767212
 C        -3.328573        -0.892976        -0.780188
 O        -4.445680        -1.770056        -0.505854
 C        -3.366110        -2.217331        -1.322452
 C        -3.614962        -2.528862        -2.762422
 H         1.784328         0.061906        -1.351199
 H         1.626946         1.321341        -0.114812
 H         2.407692        -0.200529         0.374648
 H        -2.849714        -1.130005         1.294837
 H        -2.601116         1.437012         1.437923
 H        -3.465414        -0.030280        -1.336393
 H        -2.710124        -2.768861        -0.737648
 H        -4.546930        -3.095140        -3.029453
 H        -3.679240        -1.557733        -3.225971
 H        -2.670312        -2.972767        -3.215912
