19
Iteration:    70charge 0 multiplicity 1
 C         1.530260         0.211700        -0.098106
 C         0.065507         0.147909         0.082816
 C        -1.131799        -0.012777         0.112040
 C        -2.612506        -0.135534         0.073210
 O        -3.211480         1.051049         0.012612
 C        -3.144106        -0.989459        -1.016780
 O        -4.513078        -1.424838        -0.829721
 C        -3.466291        -2.434890        -0.685013
 C        -3.309091        -3.516115        -1.717329
 H         2.048998         0.519504         0.785351
 H         1.935327        -0.737163        -0.291899
 H         1.768276         0.914216        -0.919618
 H        -2.892618        -0.604133         1.049771
 H        -2.653909         1.704023        -0.363158
 H        -2.864570        -0.712839        -2.080438
 H        -3.235444        -2.866688         0.384791
 H        -4.121112        -4.238689        -1.577890
 H        -3.351001        -3.103471        -2.747596
 H        -2.341938        -4.013519        -1.478565
