19
Iteration:  1236charge 0 multiplicity 1
 C         1.483753         0.061639        -0.228950
 C         0.036039        -0.009760         0.042056
 C        -1.194578        -0.074989         0.011292
 C        -2.597333        -0.075292         0.303570
 O        -3.141971         1.214366         0.328311
 C        -3.279324        -0.930105        -0.868806
 O        -4.428160        -1.670141        -0.494077
 C        -3.327211        -2.442313        -0.920437
 C        -3.312246        -3.202151        -2.240937
 H         1.835393         0.813283        -0.930141
 H         2.041693         0.297332         0.817115
 H         2.009384        -0.852495        -0.558436
 H        -2.785197        -0.680511         1.242274
 H        -3.277956         1.440517        -0.660236
 H        -3.447384        -0.387152        -1.848295
 H        -2.875403        -2.993598        -0.132014
 H        -3.973934        -4.047139        -2.086517
 H        -3.805067        -2.549845        -2.942803
 H        -2.416600        -3.547380        -2.697390
