19
Iteration:  2555
 C         1.401932        -0.020991        -0.405369
 C         0.012865        -0.007505        -0.048280
 C        -1.180528        -0.036018         0.189933
 C        -2.551587        -0.278865         0.387435
 O        -3.208426         1.011905         0.673196
 C        -3.290005        -0.851851        -0.936029
 O        -4.397873        -1.716893        -0.570877
 C        -3.210395        -2.279360        -1.105860
 C        -3.373897        -2.932982        -2.402170
 H         2.012539        -0.701138         0.334918
 H         1.455544        -0.456928        -1.399130
 H         1.997087         0.889874        -0.393861
 H        -2.758330        -0.955536         1.182892
 H        -2.803108         1.530779         1.403424
 H        -3.244912        -0.191547        -1.756069
 H        -2.582350        -2.705782        -0.394416
 H        -4.020336        -3.809393        -2.251979
 H        -3.791449        -2.119847        -3.014701
 H        -2.377153        -3.194163        -2.780481
