19
Iteration:  3678charge 0 multiplicity 1
 C         1.576069         0.165021        -0.303686
 C         0.075160        -0.131638        -0.178073
 C        -1.090097        -0.214500         0.089578
 C        -2.554942        -0.335228         0.362926
 O        -3.126198         0.746983         1.017054
 C        -3.326729        -0.821124        -0.865644
 O        -4.502703        -1.590585        -0.513574
 C        -3.405813        -2.279773        -1.172450
 C        -3.416901        -2.688834        -2.632291
 H         1.928014         0.067993         0.661651
 H         2.220946        -0.549851        -0.899726
 H         1.647636         1.222766        -0.887340
 H        -2.714276        -1.201763         1.121320
 H        -2.824041         1.560774         0.579750
 H        -3.602467        -0.139507        -1.710778
 H        -2.944330        -3.038595        -0.481492
 H        -3.746235        -3.699812        -2.780460
 H        -3.859974        -2.132316        -3.507868
 H        -2.435253        -2.812508        -3.012470
