19
Iteration:  1195
 C         1.484100        -0.036076        -0.216722
 C         0.034536        -0.128615        -0.088985
 C        -1.137667        -0.061701         0.072518
 C        -2.638271        -0.137825         0.207111
 O        -3.171719         1.187513         0.249342
 C        -3.397987        -0.833987        -0.905288
 O        -4.469214        -1.693694        -0.546196
 C        -3.199080        -2.307919        -0.865899
 C        -3.208164        -3.138243        -2.122205
 H         1.505448         1.046160        -0.443113
 H         1.929886        -0.065322         0.789432
 H         1.808794        -0.598501        -1.050764
 H        -2.921969        -0.548183         1.175515
 H        -3.661793         1.330459         1.101080
 H        -3.301505        -0.388949        -1.915750
 H        -2.938107        -2.782793         0.110868
 H        -3.590325        -4.167351        -2.068854
 H        -3.784083        -2.718014        -2.925433
 H        -2.147203        -3.155253        -2.282982
