19
Iteration:  1967charge 0 multiplicity 1
 C         1.357047         0.128325        -0.515294
 C        -0.051359        -0.155918        -0.187701
 C        -1.180986        -0.138261         0.303111
 C        -2.600150        -0.176079         0.403528
 O        -3.128426         1.123771         0.560210
 C        -3.139168        -0.906899        -0.782201
 O        -4.446424        -1.434226        -0.741595
 C        -3.395346        -2.443709        -0.966488
 C        -3.187671        -3.155502        -2.238026
 H         1.875824        -0.935659        -0.619836
 H         1.401203         0.477415        -1.539076
 H         1.828356         0.788712         0.260938
 H        -2.867961        -0.910367         1.156100
 H        -3.379727         1.290898         1.493042
 H        -2.784807        -0.443080        -1.753162
 H        -3.259044        -3.152490        -0.073675
 H        -3.765458        -4.120246        -2.183887
 H        -3.508921        -2.355098        -2.963672
 H        -2.079418        -3.367616        -2.361782
