19
Iteration:  1658charge 0 multiplicity 1
 C         1.456709         0.124186        -0.355884
 C         0.056627        -0.061271         0.017686
 C        -1.101835        -0.206139         0.007587
 C        -2.575761        -0.193592         0.249648
 O        -3.191924         1.070386         0.448226
 C        -3.302950        -0.883482        -0.870638
 O        -4.499527        -1.557242        -0.499017
 C        -3.358221        -2.383192        -0.872007
 C        -3.261799        -3.083512        -2.304326
 H         2.049957         1.043165        -0.066693
 H         2.108383        -0.640188        -0.035668
 H         1.487665        -0.069830        -1.441618
 H        -2.761409        -0.928393         1.151816
 H        -3.077136         1.472601         1.354422
 H        -3.381993        -0.431029        -1.838471
 H        -2.660374        -2.651627         0.064772
 H        -3.896222        -3.961416        -2.414618
 H        -3.638208        -2.462329        -3.099070
 H        -2.235340        -3.217422        -2.606654
