19
Iteration:   965charge 0 multiplicity 1
 C         1.472750         0.145891        -0.240262
 C         0.033828        -0.186330        -0.049550
 C        -1.206623        -0.158486         0.079086
 C        -2.643601        -0.175736         0.265023
 O        -3.345863         1.144918         0.265303
 C        -3.176799        -0.896846        -0.923965
 O        -4.443632        -1.437475        -0.740997
 C        -3.377222        -2.381753        -0.797607
 C        -3.128801        -3.273337        -1.973674
 H         2.041260        -0.567107         0.421790
 H         1.876792         0.006764        -1.258833
 H         1.760694         1.157551         0.065146
 H        -2.992504        -0.743259         1.132642
 H        -2.751690         1.860849         0.391843
 H        -2.889112        -0.417694        -1.893487
 H        -2.858066        -2.769611         0.074014
 H        -3.850087        -4.155034        -1.906538
 H        -3.470124        -2.854055        -2.958976
 H        -2.039586        -3.593998        -2.057689
