19
Iteration:  3923
 C         1.493798         0.006415        -0.467681
 C        -0.006321        -0.184065        -0.177782
 C        -1.225391        -0.162528         0.091702
 C        -2.557697        -0.417358         0.497014
 O        -3.252335         0.735650         1.072683
 C        -3.303540        -0.754247        -0.701759
 O        -4.457511        -1.585292        -0.681055
 C        -3.231917        -2.084674        -1.271466
 C        -3.283367        -2.655643        -2.578239
 H         1.775510         0.571862        -1.454207
 H         2.020820         0.388571         0.450945
 H         1.932004        -0.994216        -0.563669
 H        -2.554197        -1.386956         1.161258
 H        -2.569544         1.424150         1.067514
 H        -3.267694         0.128538        -1.407204
 H        -2.816975        -2.918989        -0.596197
 H        -3.370988        -3.759870        -2.635345
 H        -4.146401        -2.365891        -3.135048
 H        -2.391032        -2.357338        -3.119481
