19
Iteration:  4125charge 0 multiplicity 1
 C         1.641184         0.213817        -0.116465
 C         0.162732         0.038843         0.015570
 C        -1.026582        -0.178862        -0.109254
 C        -2.356811        -0.468141         0.284870
 O        -3.169481         0.657217         1.074784
 C        -3.295079        -0.892978        -0.932898
 O        -4.540476        -1.521626        -0.460028
 C        -3.462780        -2.268975        -1.344693
 C        -3.691754        -2.685422        -2.758773
 H         2.090720        -0.919897        -0.147383
 H         1.913563         0.863588        -0.898779
 H         1.925778         0.587018         0.795360
 H        -2.341754        -1.441484         0.871037
 H        -2.503420         1.270596         1.430607
 H        -3.525713        -0.113449        -1.601727
 H        -2.932502        -2.932334        -0.653161
 H        -3.799453        -3.746120        -2.855947
 H        -4.482158        -2.214776        -3.235189
 H        -2.748775        -2.512597        -3.266504
