19
Iteration:   422charge 0 multiplicity 1
 C         1.457635        -0.097650        -0.125229
 C        -0.038574         0.002814         0.180347
 C        -1.254393        -0.045524         0.028931
 C        -2.741299        -0.010270         0.084298
 O        -3.240126         1.283920        -0.021036
 C        -3.297201        -0.954503        -0.948049
 O        -4.467254        -1.661470        -0.350323
 C        -3.186561        -2.426586        -0.826164
 C        -3.047369        -3.218260        -2.056713
 H         2.045941        -0.915003         0.307654
 H         1.500525        -0.029192        -1.214759
 H         2.025180         0.836479         0.253838
 H        -3.180884        -0.401574         1.021348
 H        -2.750718         1.885493        -0.577387
 H        -3.385815        -0.642590        -1.952010
 H        -2.702608        -2.905833         0.061304
 H        -3.486151        -4.170179        -2.056929
 H        -3.439513        -2.870552        -2.998213
 H        -2.133109        -3.618106        -2.233331
