19
Iteration:   865charge 0 multiplicity 1
 C         1.510127         0.295217         0.023895
 C         0.140661        -0.024400         0.077849
 C        -1.069528         0.000406         0.044333
 C        -2.480519        -0.189858         0.114164
 O        -3.293216         1.028695         0.050092
 C        -3.165680        -1.034556        -1.062497
 O        -4.438876        -1.460388        -0.539777
 C        -3.396065        -2.469106        -0.821775
 C        -3.499395        -3.281501        -2.062425
 H         2.132921        -0.459571        -0.392459
 H         1.897914         1.124694        -0.627204
 H         1.886776         0.568997         0.972567
 H        -2.690811        -0.711549         1.001360
 H        -3.219572         1.335523         0.952943
 H        -3.027651        -0.618062        -2.099598
 H        -3.130780        -3.066559         0.069778
 H        -4.259121        -4.076181        -1.891728
 H        -3.834512        -2.705306        -2.930407
 H        -2.626034        -3.913899        -2.280986
