19
Iteration:  1027
 C         1.336753        -0.135504        -0.390077
 C        -0.051119         0.090131        -0.022250
 C        -1.246553        -0.023066         0.195402
 C        -2.704417        -0.039011         0.333572
 O        -3.158935         1.305217         0.417079
 C        -3.143789        -0.950941        -0.825129
 O        -4.443522        -1.548318        -0.813276
 C        -3.338082        -2.423203        -0.824160
 C        -3.036923        -3.337756        -2.126634
 H         1.856019        -0.336321         0.496174
 H         1.451648        -1.106180        -0.997601
 H         1.727991         0.811797        -0.778279
 H        -2.692973        -0.558492         1.311778
 H        -3.713697         1.303249        -0.327404
 H        -2.794785        -0.581338        -1.805738
 H        -3.055020        -2.877653         0.130322
 H        -3.610727        -4.217598        -1.941900
 H        -3.307622        -2.739781        -2.976000
 H        -2.123470        -3.836253        -2.144942
