19
Iteration:  2223charge 0 multiplicity 1
 C         1.530771         0.321290        -0.167669
 C         0.111300         0.043934         0.067821
 C        -1.072227        -0.241563        -0.041863
 C        -2.521779        -0.218625         0.205719
 O        -2.987193         1.037948         0.569264
 C        -3.417683        -0.876899        -0.976774
 O        -4.531028        -1.757926        -0.527730
 C        -3.278964        -2.329465        -1.007999
 C        -3.600657        -3.124131        -2.378845
 H         1.657786         1.333174        -0.247626
 H         2.265117         0.018807         0.630349
 H         1.789167        -0.042338        -1.185208
 H        -2.643457        -1.018703         1.106369
 H        -2.287565         1.440348         1.145365
 H        -3.652691        -0.081229        -1.667108
 H        -2.743010        -2.828270        -0.175361
 H        -4.305982        -3.917972        -2.013553
 H        -4.132205        -2.496681        -3.091491
 H        -2.771052        -3.669716        -2.853322
