19
Iteration:  3452charge 0 multiplicity 1
 C         1.472637         0.408320        -0.291661
 C         0.139352        -0.233712        -0.113945
 C        -1.060602        -0.306157         0.128036
 C        -2.487830        -0.482004         0.368263
 O        -3.115187         0.804764         0.902437
 C        -3.269679        -0.851869        -0.851885
 O        -4.515103        -1.407731        -0.617637
 C        -3.434879        -2.282240        -1.194104
 C        -3.514187        -2.851916        -2.534307
 H         1.972871        -0.137908        -1.253132
 H         1.311203         1.489822        -0.514262
 H         2.140906         0.188220         0.445603
 H        -2.506955        -1.296665         1.149929
 H        -2.458038         1.151513         1.553672
 H        -3.062466        -0.187597        -1.698623
 H        -3.057421        -3.103600        -0.571783
 H        -4.301374        -3.566026        -2.733229
 H        -3.673083        -2.205347        -3.474308
 H        -2.531347        -3.377544        -2.852946
