19
Iteration:  4412
 C         1.416546        -0.037366        -0.419074
 C        -0.014114        -0.160898        -0.194066
 C        -1.179187        -0.019927         0.099657
 C        -2.505021        -0.483963         0.545555
 O        -3.188310         0.649647         1.072343
 C        -3.269040        -0.804800        -0.656031
 O        -4.405489        -1.708098        -0.638763
 C        -3.287800        -2.129040        -1.332555
 C        -3.367237        -2.408331        -2.739245
 H         1.860296         0.933295        -0.190860
 H         1.960833        -0.770763         0.241509
 H         1.708488        -0.587893        -1.353503
 H        -2.450936        -1.318110         1.377439
 H        -2.510129         1.272965         1.407876
 H        -3.548868         0.160166        -1.271091
 H        -2.690187        -2.889490        -0.662314
 H        -4.100391        -3.287551        -2.839875
 H        -3.982682        -1.523294        -3.262937
 H        -2.387635        -2.420816        -3.300383
