19
Iteration:  3661
 C         1.494985         0.132126        -0.262166
 C         0.088303        -0.050701        -0.106223
 C        -1.106722        -0.095955         0.017312
 C        -2.437687        -0.435657         0.357828
 O        -3.100727         0.762281         0.992893
 C        -3.309201        -0.854679        -0.876524
 O        -4.505729        -1.621042        -0.519713
 C        -3.408076        -2.279935        -1.218742
 C        -3.494830        -2.723852        -2.632888
 H         2.192346         0.048508         0.696126
 H         1.796377        -0.584044        -1.005348
 H         1.709962         1.088096        -0.514029
 H        -2.504648        -1.198788         1.075508
 H        -2.981742         1.517458         0.387532
 H        -3.231081        -0.085157        -1.612826
 H        -2.858470        -2.929607        -0.561814
 H        -4.160047        -3.602481        -2.812763
 H        -3.927386        -1.829094        -2.973450
 H        -2.364363        -2.876394        -2.856081
