19
Iteration:  3894
 C         1.408289        -0.058584        -0.531367
 C        -0.018827        -0.195461        -0.109557
 C        -1.214236        -0.054792         0.209349
 C        -2.636510        -0.237067         0.387399
 O        -3.194364         0.710810         1.234540
 C        -3.282788        -0.738407        -0.884530
 O        -4.433174        -1.604027        -0.650609
 C        -3.255534        -2.218408        -1.214880
 C        -3.218626        -2.697006        -2.618632
 H         1.753290         0.627250        -1.431890
 H         2.167799         0.007518         0.244343
 H         1.741766        -0.992382        -0.989509
 H        -2.604498        -1.217324         0.879831
 H        -2.660705         1.533654         1.163385
 H        -3.275965        -0.085893        -1.822471
 H        -2.901175        -2.858832        -0.389313
 H        -3.477561        -3.735142        -2.846568
 H        -3.969346        -2.015680        -3.198591
 H        -2.231759        -2.465751        -3.057999
