19
Iteration:   495
 C         1.223389        -0.179619        -0.063844
 C        -0.173056        -0.131925        -0.273776
 C        -1.284594        -0.019102         0.065594
 C        -2.702951         0.099908         0.221330
 O        -3.244167         1.416708         0.157208
 C        -3.114569        -0.954207        -0.837976
 O        -4.371457        -1.703811        -0.609829
 C        -3.117736        -2.390854        -0.767154
 C        -3.034527        -3.287277        -1.997257
 H         1.486534        -0.004298         1.002623
 H         1.790851        -0.983995        -0.539380
 H         1.588290         0.772365        -0.518693
 H        -3.034728        -0.362424         1.171957
 H        -2.822257         1.972918        -0.453130
 H        -3.046206        -0.650488        -1.928859
 H        -2.929642        -2.769938         0.183695
 H        -3.215360        -4.383228        -1.843611
 H        -3.695108        -3.068789        -2.891125
 H        -1.938687        -3.441192        -2.395216
