19
Iteration:  4888charge 0 multiplicity 1
 C         1.423700         0.276610        -0.363436
 C         0.155260        -0.148063         0.033686
 C        -1.043632        -0.237666         0.163287
 C        -2.479183        -0.606795         0.464234
 O        -3.115918         0.453669         1.243358
 C        -3.155201        -0.869871        -0.796305
 O        -4.453741        -1.358114        -0.683654
 C        -3.450993        -2.236763        -1.314335
 C        -3.612830        -2.478537        -2.880427
 H         2.297524         0.070934         0.317068
 H         1.618424        -0.228207        -1.365866
 H         1.537704         1.331502        -0.652111
 H        -2.593691        -1.584847         1.021254
 H        -2.835251         1.231769         0.740932
 H        -2.872448        -0.030273        -1.604910
 H        -3.407287        -3.223849        -0.751066
 H        -4.518875        -3.073476        -3.013694
 H        -3.669893        -1.467119        -3.278305
 H        -2.592694        -2.842970        -3.298784
