19
Iteration:  2205
 C         1.584025         0.357627        -0.131993
 C         0.078292         0.027882        -0.125798
 C        -1.093790        -0.240704         0.069273
 C        -2.534464        -0.307153         0.253112
 O        -3.058955         1.064745         0.579753
 C        -3.343170        -0.911906        -0.918928
 O        -4.415461        -1.666011        -0.501176
 C        -3.382534        -2.358308        -1.145239
 C        -3.654808        -3.159049        -2.331848
 H         1.795586         1.448073         0.155367
 H         1.927187        -0.297781         0.655309
 H         2.054236         0.124450        -1.096280
 H        -2.856978        -0.880771         1.040336
 H        -2.215173         1.559124         0.762030
 H        -3.419066        -0.400813        -1.914388
 H        -2.594580        -2.870947        -0.423061
 H        -4.195839        -4.033921        -1.977293
 H        -4.190137        -2.472849        -3.024581
 H        -2.666107        -3.341614        -2.737955
