19
Iteration:  1950charge 0 multiplicity 1
 C         1.336181         0.031332        -0.523691
 C        -0.023328        -0.152132        -0.248170
 C        -1.147442        -0.157173         0.347587
 C        -2.648402        -0.210419         0.501805
 O        -3.208441         1.165623         0.525566
 C        -3.113897        -0.861773        -0.876370
 O        -4.423417        -1.535616        -0.710602
 C        -3.240207        -2.321171        -0.940610
 C        -3.273136        -3.152154        -2.269146
 H         1.974336        -0.774133        -0.631196
 H         1.556571         0.797208        -1.333083
 H         1.787166         0.532129         0.337464
 H        -2.978158        -0.684633         1.463115
 H        -3.417409         1.297069         1.465765
 H        -3.023081        -0.126086        -1.680241
 H        -2.921989        -2.787984         0.017462
 H        -3.882365        -4.030737        -2.189561
 H        -3.452195        -2.666533        -3.235531
 H        -2.319390        -3.631357        -2.437112
