19
Iteration:  1476
 C         1.489196         0.284098        -0.428234
 C         0.080768         0.146901        -0.085623
 C        -1.075108        -0.210440         0.258407
 C        -2.533592        -0.339096         0.361241
 O        -3.163411         1.019039         0.497245
 C        -3.028644        -1.044006        -0.854086
 O        -4.393199        -1.332248        -0.834042
 C        -3.481386        -2.454310        -0.818022
 C        -3.541803        -3.238413        -2.140368
 H         2.027223        -0.477757         0.102293
 H         1.677445         0.503504        -1.507365
 H         1.716681         1.185270         0.145989
 H        -2.880336        -1.038382         1.164228
 H        -3.865495         1.211386        -0.132082
 H        -2.677338        -0.704587        -1.841172
 H        -3.168907        -2.957169         0.011500
 H        -4.569846        -3.763985        -2.132846
 H        -3.657384        -2.538501        -2.966913
 H        -2.707300        -4.017544        -2.255180
