19
Iteration:  4655
 C         1.433178        -0.018613        -0.383179
 C         0.062436        -0.154856        -0.115360
 C        -1.106014        -0.198175         0.297312
 C        -2.526165        -0.418718         0.428461
 O        -3.155060         0.650392         1.194247
 C        -3.350886        -0.759672        -0.796698
 O        -4.338012        -1.774117        -0.555654
 C        -3.221812        -2.097143        -1.340440
 C        -3.519922        -2.366715        -2.894771
 H         1.429749        -0.584721        -1.255469
 H         1.787861         0.952430        -0.612295
 H         2.202128        -0.548732         0.289951
 H        -2.650109        -1.261665         1.030478
 H        -3.047700         1.495317         0.707984
 H        -3.602273         0.020362        -1.429587
 H        -2.407959        -2.615221        -0.848755
 H        -3.877471        -3.421208        -2.985230
 H        -4.446640        -1.665653        -3.010641
 H        -2.849644        -2.128933        -3.696968
