19
Iteration:   687
 C         1.470502         0.186690        -0.174102
 C         0.040169         0.189862         0.115533
 C        -1.132008        -0.103663         0.136316
 C        -2.582958        -0.187337         0.266156
 O        -3.141138         1.191043         0.169467
 C        -3.267527        -0.958658        -0.912393
 O        -4.485011        -1.532696        -0.914126
 C        -3.401216        -2.451307        -0.821479
 C        -3.301805        -3.485000        -1.922762
 H         1.852004         0.795669        -0.984795
 H         2.032161         0.362351         0.825219
 H         1.855933        -0.772155        -0.593187
 H        -2.968436        -0.570829         1.246087
 H        -2.373862         1.773618         0.220028
 H        -3.153046        -0.521315        -1.948542
 H        -3.209090        -2.595457         0.328547
 H        -4.042136        -4.360662        -1.891196
 H        -3.723687        -2.979399        -2.823220
 H        -2.267051        -3.824467        -2.010710
