19
Iteration:  3417
 C         1.495230         0.245551        -0.402531
 C         0.128933         0.041360        -0.027271
 C        -1.042083        -0.228966         0.260653
 C        -2.522342        -0.495547         0.427934
 O        -3.138547         0.781033         0.890255
 C        -3.224925        -0.833954        -0.833232
 O        -4.524669        -1.499036        -0.725050
 C        -3.338840        -2.312387        -1.210438
 C        -3.590030        -2.816565        -2.565335
 H         1.542116        -0.087098        -1.592658
 H         1.977167         1.228254        -0.389092
 H         2.162039        -0.384725         0.119834
 H        -2.716963        -1.245101         1.212121
 H        -2.515732         1.180577         1.542133
 H        -2.951728        -0.091221        -1.644771
 H        -3.090598        -3.209647        -0.529544
 H        -4.334580        -3.639092        -2.395459
 H        -3.841844        -1.993900        -3.348501
 H        -2.601381        -3.349311        -2.685664
