19
Iteration:   716
 C         1.434564         0.292276        -0.015571
 C        -0.002274        -0.011814        -0.159123
 C        -1.168467        -0.156789         0.134847
 C        -2.570312        -0.190089         0.186842
 O        -3.166643         1.181646         0.199343
 C        -3.077261        -1.029371        -1.003311
 O        -4.440466        -1.481888        -0.765169
 C        -3.444804        -2.462077        -0.780287
 C        -3.388179        -3.368988        -1.924956
 H         1.905652         0.918564        -0.810995
 H         1.509885         0.862218         0.839341
 H         2.147379        -0.566884         0.019221
 H        -3.123553        -0.586183         1.023135
 H        -2.377458         1.680881         0.082346
 H        -2.864131        -0.640933        -1.980753
 H        -3.109086        -2.684179         0.170752
 H        -3.967671        -4.308904        -1.757925
 H        -3.587946        -2.907151        -2.929618
 H        -2.333357        -3.717998        -2.160933
