19
Iteration:   271
 C         1.411675         0.193431         0.036542
 C        -0.061619         0.088152        -0.336028
 C        -1.178483        -0.024316         0.151970
 C        -2.620274        -0.101385         0.241246
 O        -3.117371         1.231935        -0.032764
 C        -3.075637        -1.044142        -0.948962
 O        -4.419125        -1.556363        -0.760806
 C        -3.383681        -2.439170        -0.683935
 C        -3.343929        -3.473353        -1.858943
 H         1.973982         0.099114        -0.836518
 H         1.831121         1.000002         0.608097
 H         1.666260        -0.574091         0.652849
 H        -2.949445        -0.508120         1.198504
 H        -2.981278         1.671827         0.838273
 H        -2.739079        -0.724608        -1.929547
 H        -3.304426        -3.009148         0.318220
 H        -4.051755        -4.322335        -1.755315
 H        -3.598880        -2.924922        -2.795913
 H        -2.348025        -3.776622        -2.136676
