19
Iteration:  4094
 C         1.607919         0.239284        -0.124194
 C         0.141006        -0.009603        -0.030360
 C        -1.050559        -0.168619         0.114466
 C        -2.391967        -0.517835         0.299839
 O        -3.054141         0.722842         0.901594
 C        -3.341654        -0.840150        -0.915419
 O        -4.504284        -1.694434        -0.550444
 C        -3.441303        -2.264869        -1.309587
 C        -3.740610        -2.590404        -2.676405
 H         2.135867        -0.585793        -0.539859
 H         2.035116         1.034264        -0.698777
 H         1.846531         0.297025         0.937302
 H        -2.497631        -1.385024         1.052602
 H        -2.432945         1.250962         1.437427
 H        -3.625623         0.038837        -1.422000
 H        -2.816546        -2.955791        -0.780694
 H        -4.097614        -3.652812        -2.743563
 H        -4.365656        -1.957610        -3.244500
 H        -2.749399        -2.608897        -3.188278
