19
Iteration:  4450charge 0 multiplicity 1
 C         1.569563        -0.045756        -0.442806
 C         0.091589        -0.080809        -0.033924
 C        -1.122595        -0.243592         0.206338
 C        -2.607346        -0.403070         0.473734
 O        -3.236584         0.809347         1.058661
 C        -3.412448        -0.804829        -0.791649
 O        -4.330741        -1.819674        -0.466775
 C        -3.288211        -2.208547        -1.362947
 C        -3.441377        -2.311927        -2.879771
 H         1.967363         0.902697        -0.868585
 H         2.219350        -0.436022         0.342024
 H         1.610102        -0.677809        -1.354264
 H        -2.675418        -1.211101         1.132320
 H        -2.647196         1.053648         1.784393
 H        -3.863438        -0.029236        -1.288296
 H        -2.642096        -2.919626        -0.962905
 H        -3.929355        -3.240229        -3.057790
 H        -4.088003        -1.575032        -3.109513
 H        -2.453502        -2.416767        -3.372533
