19
Iteration:  3183
 C         1.481671        -0.041101        -0.423473
 C         0.071410        -0.037713        -0.071898
 C        -1.110683        -0.170882         0.279229
 C        -2.559189        -0.206683         0.547335
 O        -3.213375         1.020583         0.653696
 C        -3.353253        -0.939919        -0.718525
 O        -4.419847        -1.814780        -0.415629
 C        -3.216154        -2.294131        -1.294006
 C        -3.402183        -2.632935        -2.729070
 H         2.140889         0.638841         0.165196
 H         1.773497        -1.126586        -0.413942
 H         1.550609         0.139604        -1.414448
 H        -2.902050        -0.869046         1.434979
 H        -2.897996         1.331961         1.519909
 H        -3.507284        -0.177973        -1.480611
 H        -2.736640        -3.017868        -0.672662
 H        -3.862608        -3.611919        -2.832613
 H        -4.025355        -1.884182        -3.221579
 H        -2.448326        -2.723881        -3.235163
