19
Iteration:  4235charge 0 multiplicity 1
 C         1.405128         0.325319        -0.473628
 C         0.170823        -0.125296         0.057659
 C        -1.010438        -0.312866         0.343211
 C        -2.473668        -0.560176         0.441549
 O        -3.087684         0.737386         1.001999
 C        -3.211090        -0.910924        -0.843348
 O        -4.573611        -1.518548        -0.711315
 C        -3.510147        -2.280913        -1.210132
 C        -3.484191        -2.533314        -2.761033
 H         2.228608        -0.039768         0.240884
 H         1.742770        -0.169716        -1.333582
 H         1.541219         1.337468        -0.503992
 H        -2.600361        -1.390529         1.063133
 H        -2.446864         0.925324         1.721795
 H        -3.099685        -0.336852        -1.735023
 H        -2.955471        -3.089761        -0.706220
 H        -4.483597        -2.890752        -2.958295
 H        -3.365810        -1.694246        -3.367992
 H        -2.730155        -3.267732        -2.986048
