19
Iteration:  2611
 C         1.593243         0.059317        -0.245691
 C         0.060240        -0.071330        -0.234424
 C        -1.177371         0.062235         0.054088
 C        -2.531117        -0.244829         0.341016
 O        -3.230312         0.897608         0.645567
 C        -3.346776        -0.904274        -0.806868
 O        -4.486466        -1.667735        -0.473106
 C        -3.311356        -2.354015        -1.069433
 C        -3.344107        -2.847143        -2.474755
 H         1.948537        -0.043485         0.909582
 H         2.135955        -0.812107        -0.636483
 H         1.922378         0.890161        -0.820246
 H        -2.618921        -1.018670         1.069166
 H        -2.750585         1.397386         1.333838
 H        -3.358667        -0.301774        -1.738393
 H        -3.014208        -3.055768        -0.309494
 H        -4.002587        -3.739798        -2.551141
 H        -3.895443        -2.188386        -3.133660
 H        -2.326412        -3.088632        -2.926950
