19
Iteration:  1307
 C         1.493541         0.218970        -0.204364
 C         0.138839        -0.041883         0.076199
 C        -1.099264        -0.039286        -0.024024
 C        -2.508997        -0.172581         0.243128
 O        -3.130952         1.095538         0.300375
 C        -3.172207        -0.968548        -0.885247
 O        -4.476378        -1.560895        -0.517598
 C        -3.368720        -2.415658        -0.907476
 C        -3.488642        -3.223966        -2.212757
 H         1.851695         0.342195        -1.315386
 H         1.763142         1.093858         0.450666
 H         2.148401        -0.626119         0.214689
 H        -2.976651        -0.724011         1.112989
 H        -3.988984         0.725569         0.105791
 H        -3.363804        -0.361472        -1.788263
 H        -2.978490        -2.913086         0.056018
 H        -4.331588        -3.958874        -2.088168
 H        -3.905152        -2.572365        -3.054613
 H        -2.533020        -3.718310        -2.526454
