19
Iteration:  1179charge 0 multiplicity 1
 C         1.444555        -0.014629        -0.210883
 C        -0.052339        -0.107463        -0.170061
 C        -1.252831        -0.078933         0.053126
 C        -2.625379        -0.105674         0.270906
 O        -3.219333         1.211694         0.271976
 C        -3.241764        -0.895712        -0.884911
 O        -4.497531        -1.626466        -0.570635
 C        -3.235076        -2.359377        -0.879749
 C        -3.112736        -3.145176        -2.100910
 H         1.969556         0.955806        -0.281632
 H         1.877836        -0.588369         0.715584
 H         1.802853        -0.728749        -1.035921
 H        -2.873761        -0.766128         1.147344
 H        -2.913628         1.536840         1.092973
 H        -3.460904        -0.306468        -1.770349
 H        -2.598687        -2.669998        -0.059722
 H        -3.581426        -4.129622        -1.886249
 H        -3.871233        -2.772249        -2.857460
 H        -2.090806        -3.283867        -2.510007
