19
Iteration:  4008
 C         1.529090         0.217853        -0.315405
 C         0.100510        -0.106687         0.054055
 C        -1.074216        -0.459593         0.158731
 C        -2.493596        -0.416825         0.506905
 O        -3.122053         0.871215         0.771635
 C        -3.262492        -0.817659        -0.721724
 O        -4.494165        -1.799882        -0.540187
 C        -3.337229        -2.206951        -1.278073
 C        -3.586832        -2.510662        -2.789557
 H         1.600580         0.067497        -1.348847
 H         1.569318         1.337596        -0.107485
 H         2.489450        -0.324034         0.187078
 H        -2.659883        -1.074360         1.323062
 H        -2.609500         1.520510         1.310515
 H        -3.419133        -0.056184        -1.452077
 H        -2.786313        -3.034473        -0.809024
 H        -4.487874        -3.228406        -2.933982
 H        -3.796504        -1.600930        -3.355178
 H        -2.651730        -3.045942        -3.161881
