19
Iteration:  1672charge 0 multiplicity 1
 C         1.505018         0.078200        -0.409563
 C         0.091277        -0.128857         0.107492
 C        -1.100133        -0.127296         0.041628
 C        -2.594399        -0.237685         0.250718
 O        -3.232926         1.079471         0.341945
 C        -3.280579        -0.904115        -0.882303
 O        -4.490130        -1.594785        -0.368682
 C        -3.345720        -2.348420        -0.963506
 C        -3.266385        -2.998085        -2.313519
 H         1.611852         1.195522        -0.250068
 H         2.228471        -0.517080         0.163572
 H         1.421480        -0.054022        -1.507737
 H        -2.791939        -0.781466         1.237775
 H        -3.171102         1.295268         1.278870
 H        -3.333005        -0.267036        -1.775927
 H        -3.034532        -3.127618        -0.238964
 H        -3.781959        -3.959504        -2.274367
 H        -3.630047        -2.326161        -3.065744
 H        -2.169830        -3.099824        -2.391040
