19
Iteration:  4048
 C         1.454588         0.229435        -0.154798
 C         0.102592        -0.128257        -0.050774
 C        -1.056915        -0.288553         0.172241
 C        -2.477226        -0.446097         0.419887
 O        -3.021692         0.889496         0.801620
 C        -3.231465        -0.913828        -0.821156
 O        -4.405975        -1.773105        -0.487044
 C        -3.381080        -2.233635        -1.329175
 C        -3.725800        -2.551546        -2.776632
 H         1.928015        -0.070865        -1.149158
 H         1.447383         1.246915        -0.431124
 H         1.984669         0.071076         0.698781
 H        -2.739777        -1.261940         1.195498
 H        -2.631972         1.022275         1.680690
 H        -3.354809        -0.085667        -1.485285
 H        -2.708433        -2.902236        -0.794829
 H        -4.586582        -3.161575        -2.874898
 H        -3.878918        -1.620824        -3.303191
 H        -2.933602        -3.010293        -3.352790
