19
Iteration:  2066charge 0 multiplicity 1
 C         1.408828         0.250250        -0.354634
 C         0.046231        -0.062041        -0.206650
 C        -1.120150        -0.183034         0.118124
 C        -2.587534        -0.219728         0.367729
 O        -3.166707         1.003843         0.754028
 C        -3.128076        -0.904130        -0.871832
 O        -4.393308        -1.472814        -0.845556
 C        -3.279239        -2.426028        -0.971388
 C        -3.514419        -3.154504        -2.165927
 H         1.882680         0.036830         0.691355
 H         1.780464        -0.364580        -1.142230
 H         1.673017         1.295112        -0.504916
 H        -2.859499        -1.045376         1.266988
 H        -2.792664         1.655173         0.169382
 H        -3.076410        -0.427961        -1.887777
 H        -3.176225        -2.872164        -0.030462
 H        -4.326162        -3.841113        -1.950004
 H        -3.455013        -2.490983        -3.109315
 H        -2.702948        -3.929756        -2.304808
