19
Iteration:  2936charge 0 multiplicity 1
 C         1.453310         0.255207        -0.454853
 C         0.085891         0.075787         0.001254
 C        -1.035352        -0.297230         0.316877
 C        -2.446531        -0.343186         0.502249
 O        -3.115342         0.847221         0.817491
 C        -3.237096        -0.935487        -0.833512
 O        -4.563380        -1.514446        -0.706002
 C        -3.468641        -2.334136        -1.176882
 C        -3.433523        -2.935505        -2.561294
 H         1.628859        -0.512586        -1.202917
 H         1.583906         1.151086        -1.110221
 H         2.189235        -0.058500         0.441585
 H        -2.708830        -0.845223         1.392333
 H        -2.730242         1.688251         0.513771
 H        -2.897992        -0.238789        -1.563758
 H        -3.278960        -3.046843        -0.269379
 H        -4.182797        -3.623223        -2.922647
 H        -3.383346        -2.188889        -3.286924
 H        -2.489549        -3.363645        -2.567387
