19
Iteration:  1780charge 0 multiplicity 1
 C         1.531965        -0.087198        -0.277252
 C         0.049437        -0.140926        -0.008026
 C        -1.154662        -0.130748        -0.027466
 C        -2.673840        -0.066840         0.240981
 O        -3.194145         1.271154         0.535334
 C        -3.498737        -0.845008        -0.802791
 O        -4.404243        -1.943449        -0.366189
 C        -3.177933        -2.279434        -1.080915
 C        -3.282065        -2.952340        -2.370496
 H         1.740245         0.487393        -1.202536
 H         2.009439         0.519535         0.372117
 H         2.107812        -1.000116        -0.276956
 H        -2.651057        -0.441069         1.235801
 H        -3.083830         1.907470        -0.240819
 H        -3.991413        -0.071177        -1.374748
 H        -2.212306        -2.698904        -0.554481
 H        -3.605762        -3.934080        -2.096555
 H        -3.979896        -2.598372        -3.084833
 H        -2.401803        -3.272185        -2.840127
