19
Iteration:  2576
 C         1.546087        -0.052862        -0.381876
 C         0.075373         0.098182         0.023002
 C        -1.108642        -0.086156        -0.009081
 C        -2.609577        -0.177326         0.331012
 O        -3.259167         0.993532         0.704622
 C        -3.335667        -0.869607        -0.779334
 O        -4.467885        -1.688590        -0.544335
 C        -3.216035        -2.331886        -1.053621
 C        -3.358419        -2.955477        -2.535021
 H         2.206245        -0.444432         0.497999
 H         1.563785        -0.681220        -1.276371
 H         2.089651         0.906996        -0.562772
 H        -2.646100        -0.905346         1.094964
 H        -3.114786         1.400648         1.583965
 H        -3.525011        -0.182515        -1.549975
 H        -2.896582        -3.024179        -0.364501
 H        -3.972165        -3.858533        -2.362560
 H        -3.740749        -2.150945        -3.195737
 H        -2.361294        -3.318296        -2.846725
