19
Iteration:  3751
 C         1.325720         0.090343        -0.617146
 C        -0.004138        -0.028004        -0.017930
 C        -1.129488        -0.394499         0.325550
 C        -2.673747        -0.314262         0.498893
 O        -3.033485         0.889223         1.040579
 C        -3.286158        -0.826330        -0.811158
 O        -4.432925        -1.625628        -0.651870
 C        -3.389651        -2.245619        -1.221384
 C        -3.237845        -2.714311        -2.656239
 H         1.998622         0.725653         0.042000
 H         1.790401        -0.889489        -0.420645
 H         1.404056         0.398675        -1.665277
 H        -2.955016        -1.062767         1.228244
 H        -2.242959         1.468776         1.052396
 H        -3.214569        -0.126346        -1.733477
 H        -2.927979        -3.108080        -0.593648
 H        -3.617417        -3.747546        -3.007856
 H        -3.909487        -1.929244        -3.237821
 H        -2.231424        -2.645418        -3.145457
