19
Iteration:    40charge 0 multiplicity 1
 C         1.417381         0.174053        -0.047472
 C         0.000217         0.135864        -0.117739
 C        -1.169732        -0.009925         0.092332
 C        -2.570763         0.024113         0.172531
 O        -3.191621         1.330288         0.056982
 C        -3.047682        -1.017614        -0.868719
 O        -4.399262        -1.531793        -0.871840
 C        -3.458622        -2.578427        -0.691778
 C        -3.387054        -3.668027        -1.840418
 H         1.653571         0.252273         1.056221
 H         1.813580        -0.731007        -0.665981
 H         1.975752         1.072390        -0.302743
 H        -2.906188        -0.384702         1.205192
 H        -2.518878         2.011377        -0.271356
 H        -2.668156        -0.819458        -1.891832
 H        -3.280202        -3.099849         0.328026
 H        -4.140530        -4.444591        -1.535948
 H        -3.644876        -3.174170        -2.790640
 H        -2.347630        -4.043875        -1.785093
