19
Iteration:  4829
 C         1.268931         0.314965        -0.471753
 C        -0.012531        -0.112991        -0.082489
 C        -1.043620        -0.558212         0.364871
 C        -2.463511        -0.635378         0.629401
 O        -2.946797         0.523643         1.234458
 C        -3.058812        -0.844345        -0.766871
 O        -4.573898        -1.280681        -0.827648
 C        -3.518209        -2.121213        -1.349293
 C        -3.388232        -2.538878        -2.822787
 H         2.124834        -0.215610        -0.164194
 H         1.088279         0.208101        -1.539351
 H         1.357066         1.422113        -0.297552
 H        -2.865135        -1.573218         1.278086
 H        -2.581841         1.285039         0.748289
 H        -2.768614        -0.113088        -1.418797
 H        -3.320665        -2.932774        -0.655211
 H        -3.868406        -3.467910        -3.135370
 H        -3.929443        -1.844168        -3.469588
 H        -2.416964        -2.601625        -3.121054
