19
Iteration:   923
 C         1.573646         0.132203        -0.101970
 C         0.076292         0.153735        -0.092342
 C        -1.144842        -0.041961         0.098896
 C        -2.684636        -0.120034         0.296276
 O        -3.056367         1.236793         0.356975
 C        -3.209837        -0.981801        -1.000022
 O        -4.512775        -1.639866        -0.787116
 C        -3.385055        -2.461970        -0.834506
 C        -3.359353        -3.392210        -2.049677
 H         1.957356        -0.836530         0.324692
 H         1.893001         0.486423        -1.018883
 H         1.812601         0.924997         0.642332
 H        -2.912870        -0.607506         1.209979
 H        -3.736448         1.302059        -0.392972
 H        -3.092223        -0.612841        -2.024469
 H        -3.235927        -2.869715         0.158459
 H        -4.052078        -4.133113        -1.923921
 H        -3.673617        -2.863758        -2.933733
 H        -2.351149        -3.668050        -2.249476
