19
Iteration:  2848charge 0 multiplicity 1
 C         1.493881         0.230634        -0.320353
 C         0.081160        -0.009123        -0.179735
 C        -1.074432        -0.112498         0.189588
 C        -2.463229        -0.452074         0.369975
 O        -3.193393         0.714059         0.987647
 C        -3.155662        -0.786331        -0.909089
 O        -4.481358        -1.367895        -0.815142
 C        -3.403051        -2.204137        -1.147148
 C        -3.520999        -3.138843        -2.394413
 H         1.834229         0.561807        -1.245521
 H         1.744419         1.113761         0.317443
 H         2.169997        -0.681527        -0.093150
 H        -2.496321        -1.135944         1.160853
 H        -3.098890         1.553355         0.501033
 H        -2.982035        -0.082409        -1.704206
 H        -3.240429        -2.986017        -0.340952
 H        -4.161959        -3.957737        -2.123632
 H        -3.989650        -2.628175        -3.175368
 H        -2.584130        -3.510556        -2.635920
