19
Iteration:  2719
 C         1.438150         0.319532        -0.284256
 C         0.069648        -0.038011         0.046649
 C        -1.085814        -0.330284         0.113866
 C        -2.494112        -0.344389         0.397030
 O        -3.040542         0.932292         0.668098
 C        -3.181989        -0.913275        -0.787328
 O        -4.505802        -1.599434        -0.629752
 C        -3.378199        -2.364842        -1.067005
 C        -3.556757        -2.852244        -2.514466
 H         1.627791         1.396103        -0.084471
 H         2.051346        -0.302095         0.327561
 H         1.756552         0.172968        -1.294508
 H        -2.841103        -1.028843         1.234157
 H        -2.769955         1.560594        -0.020263
 H        -3.285203        -0.359662        -1.711963
 H        -2.903808        -3.135587        -0.519242
 H        -4.219313        -3.768599        -2.351445
 H        -3.962298        -2.269740        -3.332079
 H        -2.548424        -3.197982        -2.980794
