19
Iteration:  1156
 C         1.389060        -0.154749        -0.221943
 C        -0.059697         0.026743        -0.197732
 C        -1.221361        -0.074553         0.069775
 C        -2.652413        -0.056210         0.274460
 O        -3.280464         1.274091         0.414245
 C        -3.286159        -0.878491        -0.824435
 O        -4.431035        -1.612203        -0.655809
 C        -3.223975        -2.427435        -0.840955
 C        -3.122185        -3.205577        -2.127055
 H         1.885810         0.860018        -0.096686
 H         1.936124        -0.863185         0.467984
 H         1.851840        -0.528971        -1.218598
 H        -2.799688        -0.784973         1.112567
 H        -2.523943         1.814292        -0.032866
 H        -3.200282        -0.426727        -1.806757
 H        -2.661522        -2.881236         0.002870
 H        -3.425873        -4.287008        -1.994484
 H        -3.691064        -2.913151        -3.081104
 H        -1.991344        -3.204338        -2.355245
