19
Iteration:   359charge 0 multiplicity 1
 C         1.393771        -0.002707        -0.045448
 C        -0.072312         0.080670        -0.034211
 C        -1.234634        -0.043454         0.111255
 C        -2.631849        -0.004269         0.206067
 O        -3.178897         1.328581        -0.016483
 C        -3.238419        -0.961771        -0.955649
 O        -4.347524        -1.679870        -0.566231
 C        -3.226307        -2.448884        -0.849835
 C        -3.276105        -3.447687        -1.990816
 H         1.945197        -0.869063        -0.327786
 H         1.714879         0.795499        -0.758059
 H         1.622740         0.273811         0.976173
 H        -3.063908        -0.339969         1.158888
 H        -2.502448         2.045238         0.099436
 H        -3.313015        -0.487842        -1.908377
 H        -2.822426        -2.863489         0.133873
 H        -3.805471        -4.310938        -1.584006
 H        -3.823313        -2.968230        -2.819345
 H        -2.209657        -3.592018        -2.242948
