19
Iteration:   362
 C         1.369628         0.003051        -0.033584
 C        -0.065813         0.061151        -0.071294
 C        -1.240618        -0.039715         0.124728
 C        -2.628204        -0.016064         0.226390
 O        -3.172647         1.363111        -0.020924
 C        -3.239108        -0.971922        -0.917241
 O        -4.348845        -1.684118        -0.582355
 C        -3.189622        -2.450753        -0.847401
 C        -3.287569        -3.468172        -2.001120
 H         1.846393        -0.949559        -0.326973
 H         1.796649         0.788054        -0.708446
 H         1.613102         0.367448         0.925846
 H        -3.092910        -0.371626         1.155172
 H        -2.588231         2.100450         0.054756
 H        -3.258687        -0.391965        -1.885152
 H        -2.801337        -2.873737         0.063278
 H        -3.862104        -4.272120        -1.551249
 H        -3.827357        -2.993435        -2.823668
 H        -2.215371        -3.553883        -2.315373
