19
Iteration:   588
 C         1.378743        -0.108058        -0.234323
 C        -0.059157        -0.047109        -0.120396
 C        -1.236474         0.133690         0.181383
 C        -2.713781        -0.062182         0.261417
 O        -3.282828         1.244799         0.069335
 C        -3.069900        -0.933623        -0.890228
 O        -4.432086        -1.582508        -0.754128
 C        -3.326891        -2.418995        -0.754130
 C        -3.026784        -3.318679        -1.915935
 H         1.900702         0.788744         0.152062
 H         1.700297        -1.079764         0.279538
 H         1.786394        -0.225456        -1.286966
 H        -3.189239        -0.504862         1.243519
 H        -3.244554         1.689117         0.981165
 H        -2.781699        -0.436439        -1.834315
 H        -3.098034        -2.949512         0.265095
 H        -3.754105        -4.155696        -1.948559
 H        -3.258586        -2.774954        -2.822013
 H        -2.086484        -3.755350        -1.711196
