19
Iteration:  2225charge 0 multiplicity 1
 C         1.542751         0.320653        -0.184272
 C         0.103764         0.037535         0.099385
 C        -1.099048        -0.234641        -0.059720
 C        -2.489259        -0.225619         0.218512
 O        -2.979961         1.036858         0.565535
 C        -3.428411        -0.882240        -0.972322
 O        -4.534033        -1.760392        -0.529838
 C        -3.296336        -2.321037        -1.015224
 C        -3.593497        -3.137288        -2.383067
 H         1.636102         1.372447        -0.279744
 H         2.214710         0.031492         0.641244
 H         1.801525        -0.076977        -1.182565
 H        -2.630679        -0.960089         1.094283
 H        -2.341831         1.418455         1.166873
 H        -3.662905        -0.100216        -1.724595
 H        -2.644565        -2.780408        -0.094182
 H        -4.316126        -3.879729        -1.999267
 H        -4.072109        -2.401248        -3.063822
 H        -2.746439        -3.625176        -2.851746
