19
Iteration:  1983charge 0 multiplicity 1
 C         1.409478         0.108792        -0.560896
 C         0.012654        -0.039747        -0.050807
 C        -1.157986        -0.179740         0.188035
 C        -2.566027        -0.301165         0.443647
 O        -3.122288         1.094576         0.549927
 C        -3.134657        -1.004271        -0.830082
 O        -4.567890        -1.420436        -0.831067
 C        -3.450444        -2.379417        -0.822865
 C        -3.152160        -3.077658        -2.225659
 H         1.970537        -0.754519        -0.446819
 H         1.374419         0.438189        -1.669215
 H         1.800861         0.967782         0.035668
 H        -2.852469        -0.832159         1.396006
 H        -3.355779         1.260019         1.520450
 H        -2.935524        -0.568599        -1.806765
 H        -3.320979        -2.972966         0.153598
 H        -3.693297        -4.014627        -2.311714
 H        -3.504001        -2.501368        -3.093637
 H        -2.081647        -3.204928        -2.262020
