19
Iteration:  2212
 C         1.534359         0.355775        -0.123283
 C         0.145401         0.050553        -0.072177
 C        -1.054464        -0.254275         0.038337
 C        -2.598178        -0.282281         0.179246
 O        -3.032373         1.064476         0.586667
 C        -3.354500        -0.856120        -0.898251
 O        -4.465569        -1.705284        -0.516518
 C        -3.319551        -2.372237        -1.123626
 C        -3.631947        -3.115853        -2.309344
 H         1.705948         1.357753        -0.045405
 H         2.160446        -0.268538         0.589036
 H         1.896819        -0.001047        -1.116176
 H        -2.862161        -1.002866         1.096787
 H        -2.191808         1.494967         0.912618
 H        -3.577929        -0.357311        -1.837015
 H        -2.756035        -3.035904        -0.428253
 H        -4.249235        -4.000169        -2.014497
 H        -4.206966        -2.610391        -3.069229
 H        -2.711674        -3.512140        -2.780605
