19
Iteration:  2306charge 0 multiplicity 1
 C         1.427603         0.153085        -0.335274
 C         0.043283        -0.038947        -0.164511
 C        -1.098461        -0.082074         0.078970
 C        -2.509867        -0.301529         0.454908
 O        -3.246064         0.964325         0.519966
 C        -3.166534        -0.965215        -0.756188
 O        -4.503826        -1.568124        -0.617353
 C        -3.244455        -2.429207        -0.975764
 C        -3.447965        -2.936331        -2.391032
 H         1.712165         0.735928        -1.302535
 H         1.844736         0.639037         0.565585
 H         1.817977        -0.860530        -0.333176
 H        -2.645987        -0.749656         1.421229
 H        -2.596636         1.607179         0.797209
 H        -2.996112        -0.285679        -1.615749
 H        -2.990641        -3.065915        -0.005726
 H        -3.958326        -3.904573        -2.455954
 H        -3.955152        -2.120424        -2.976102
 H        -2.391449        -3.019641        -2.752151
