19
Iteration:  3044
 C         1.503399         0.024418        -0.300546
 C         0.058955         0.058346        -0.047006
 C        -1.130029        -0.109659        -0.008147
 C        -2.564752        -0.348144         0.366737
 O        -3.037112         0.915615         0.750711
 C        -3.370806        -0.891641        -0.755714
 O        -4.587377        -1.723836        -0.560172
 C        -3.346866        -2.352321        -1.083560
 C        -3.364942        -2.721925        -2.593690
 H         1.867574        -0.799076         0.116093
 H         1.662982         0.066775        -1.373304
 H         2.112189         0.950056        -0.132992
 H        -2.609006        -0.853342         1.413482
 H        -2.609467         1.224120         1.555383
 H        -3.521737        -0.177932        -1.531858
 H        -2.586239        -2.864650        -0.432300
 H        -3.482142        -3.854147        -2.800289
 H        -4.049618        -2.072830        -3.168513
 H        -2.329102        -2.488160        -2.904978
