19
Iteration:  4874charge 0 multiplicity 1
 C         1.408754         0.307302        -0.461634
 C         0.083575        -0.192491         0.005167
 C        -1.077124        -0.397434         0.229391
 C        -2.411052        -0.585523         0.521852
 O        -3.122892         0.459631         1.205988
 C        -3.104865        -0.919937        -0.835069
 O        -4.466193        -1.307234        -0.757075
 C        -3.458820        -2.233512        -1.337177
 C        -3.564076        -2.384586        -2.751809
 H         2.052502         0.040218         0.352242
 H         1.824038         0.000466        -1.419560
 H         1.285697         1.429569        -0.335158
 H        -2.466380        -1.449423         1.399044
 H        -2.951224         1.366893         0.876315
 H        -3.003360        -0.177850        -1.596316
 H        -3.141777        -3.079145        -0.664064
 H        -4.264618        -3.193597        -3.072125
 H        -3.909192        -1.589331        -3.340035
 H        -2.621743        -2.814251        -3.090028
