19
Iteration:  4711
 C         1.476753        -0.016715        -0.546113
 C         0.088957        -0.017533        -0.134299
 C        -1.069697        -0.104557         0.270495
 C        -2.513196        -0.494688         0.524860
 O        -3.213689         0.499367         1.261012
 C        -3.304270        -0.847498        -0.752555
 O        -4.527333        -1.563922        -0.766918
 C        -3.282309        -2.189161        -1.317082
 C        -3.376260        -2.365353        -2.729548
 H         1.733543        -0.950456        -0.967314
 H         1.827948         0.742623        -1.235182
 H         2.005565        -0.023598         0.468945
 H        -2.604104        -1.333981         1.118668
 H        -2.699772         1.322482         1.270546
 H        -3.261205        -0.100975        -1.533561
 H        -2.961124        -2.892269        -0.566984
 H        -4.174625        -3.072794        -3.017814
 H        -3.825598        -1.466306        -3.128167
 H        -2.535932        -2.664418        -3.361056
