19
Iteration:  2595
 C         1.544793        -0.022974        -0.270967
 C         0.159379         0.021378        -0.132207
 C        -1.088390         0.023497        -0.017883
 C        -2.514439        -0.249088         0.377010
 O        -3.308516         1.001443         0.679343
 C        -3.302158        -0.898634        -0.813759
 O        -4.512645        -1.717814        -0.505232
 C        -3.382389        -2.327662        -1.084563
 C        -3.353216        -2.901834        -2.483514
 H         2.038311        -0.118268         0.632722
 H         1.808884        -0.861369        -0.971456
 H         1.809967         1.015327        -0.668348
 H        -2.429344        -0.855712         1.339902
 H        -2.886914         1.185688         1.537747
 H        -3.576949        -0.236105        -1.654902
 H        -2.645772        -2.977518        -0.530465
 H        -3.796236        -3.899542        -2.705852
 H        -3.730971        -2.170094        -3.262996
 H        -2.333764        -3.238042        -2.667692
