19
Iteration:  4639
 C         1.546519        -0.018869        -0.426483
 C         0.079674        -0.178625        -0.110262
 C        -1.133828        -0.292680         0.201082
 C        -2.587408        -0.384768         0.517401
 O        -3.201077         0.708286         1.168866
 C        -3.374940        -0.763551        -0.774467
 O        -4.345763        -1.851510        -0.608738
 C        -3.107054        -2.086454        -1.424617
 C        -3.592270        -2.284860        -2.725634
 H         2.107430        -0.389967        -1.395153
 H         1.685682         1.098393        -0.237179
 H         2.020526        -0.538516         0.366184
 H        -2.851657        -1.286536         1.200689
 H        -2.929997         1.505285         0.656007
 H        -3.781719         0.123221        -1.401687
 H        -2.453922        -2.841735        -0.904722
 H        -3.872823        -3.303154        -3.008397
 H        -4.492284        -1.776573        -3.096687
 H        -2.753323        -2.087586        -3.479235
