19
Iteration:  1495
 C         1.465222         0.261500        -0.373153
 C        -0.024685         0.174452        -0.177963
 C        -1.060700        -0.121014         0.272443
 C        -2.492218        -0.295012         0.409603
 O        -3.123537         0.985355         0.529277
 C        -2.977650        -1.036970        -0.818873
 O        -4.418897        -1.424183        -0.893191
 C        -3.395783        -2.461060        -0.873745
 C        -3.611509        -3.193056        -2.112380
 H         1.857415        -0.571008         0.351495
 H         1.541730         0.106737        -1.412811
 H         1.998131         1.277222        -0.189894
 H        -2.896521        -0.723348         1.316408
 H        -3.473202         0.808130        -0.374937
 H        -2.606807        -0.650151        -1.735210
 H        -3.646133        -3.020853         0.051607
 H        -4.539573        -3.779925        -2.093823
 H        -3.789214        -2.509180        -2.925798
 H        -2.695615        -3.735209        -2.356812
