19
Iteration:  2940
 C         1.456645         0.258899        -0.438270
 C         0.071930         0.058644        -0.006798
 C        -1.033170        -0.318649         0.313481
 C        -2.460853        -0.369371         0.495268
 O        -3.138119         0.913210         0.832189
 C        -3.202209        -0.948374        -0.826665
 O        -4.551861        -1.526647        -0.697577
 C        -3.450896        -2.307499        -1.167739
 C        -3.454804        -2.958199        -2.559851
 H         1.715164        -0.590061        -1.237281
 H         1.511026         1.095517        -1.089739
 H         2.111330         0.071132         0.293914
 H        -2.801410        -1.013059         1.341243
 H        -2.641638         1.705208         0.558961
 H        -2.889936        -0.265241        -1.697964
 H        -3.153178        -3.014704        -0.448608
 H        -4.240171        -3.610767        -2.985325
 H        -3.411173        -2.043783        -3.227830
 H        -2.393331        -3.392255        -2.635691
