19
Iteration:  1694
 C         1.505467         0.074553        -0.388426
 C         0.111914        -0.184502        -0.010243
 C        -1.107039        -0.053655         0.219502
 C        -2.520638        -0.151011         0.371362
 O        -3.251627         1.099137         0.239186
 C        -3.304381        -0.889700        -0.763717
 O        -4.490372        -1.719323        -0.435006
 C        -3.302476        -2.387531        -0.938381
 C        -3.339893        -2.973777        -2.402827
 H         1.631495         1.186885        -0.588789
 H         2.136686        -0.389927         0.399713
 H         1.576636        -0.399098        -1.409578
 H        -2.824062        -0.633398         1.375050
 H        -3.180240         1.562728         1.103700
 H        -3.368119        -0.286085        -1.688396
 H        -2.663883        -2.984120        -0.210082
 H        -3.880662        -3.930101        -2.422967
 H        -3.882551        -2.236496        -2.995704
 H        -2.298900        -3.066808        -2.757003
