19
Iteration:  3165
 C         1.406788        -0.115997        -0.438707
 C         0.057798         0.043877         0.052688
 C        -1.147357        -0.043709         0.263100
 C        -2.549449        -0.346890         0.418603
 O        -3.133988         1.047163         0.696047
 C        -3.328853        -0.838024        -0.714564
 O        -4.337461        -1.873508        -0.482608
 C        -3.269593        -2.262354        -1.248498
 C        -3.469297        -2.695049        -2.719180
 H         2.031824         0.437604         0.423548
 H         1.801429        -1.129510        -0.582095
 H         1.619033         0.368244        -1.476139
 H        -2.724682        -1.078260         1.194060
 H        -2.976734         1.300496         1.625839
 H        -3.726414        -0.063843        -1.360204
 H        -2.436884        -2.840527        -0.725494
 H        -4.118936        -3.682157        -2.689568
 H        -3.999511        -1.956380        -3.354044
 H        -2.431010        -2.923556        -3.100107
