19
Iteration:   141
 C         1.416834         0.247198        -0.050548
 C        -0.033547         0.141534        -0.270259
 C        -1.193274         0.044140         0.187011
 C        -2.624840        -0.137275         0.255627
 O        -3.056140         1.181018         0.126011
 C        -2.974471        -1.078482        -0.870809
 O        -4.438879        -1.480044        -0.987122
 C        -3.461967        -2.468658        -0.731187
 C        -3.404057        -3.561982        -1.767669
 H         1.718047         1.291750         0.302234
 H         1.715853        -0.387094         0.893026
 H         2.073801         0.061034        -0.896499
 H        -3.063258        -0.532147         1.215147
 H        -2.931372         1.493120        -0.748994
 H        -2.601412        -1.003236        -1.848981
 H        -3.477145        -2.814694         0.319673
 H        -4.233670        -4.212478        -1.434439
 H        -3.631981        -3.170049        -2.773788
 H        -2.450243        -4.046475        -1.584004
