19
Iteration:  4342charge 0 multiplicity 1
 C         1.388179         0.134956        -0.555423
 C         0.100224        -0.185792        -0.002162
 C        -1.148087        -0.196704         0.173374
 C        -2.531477        -0.514463         0.493620
 O        -3.114889         0.639843         1.180428
 C        -3.340672        -0.740156        -0.689254
 O        -4.575787        -1.494187        -0.768077
 C        -3.281458        -2.127252        -1.290156
 C        -3.290762        -2.617285        -2.711495
 H         2.044144         0.769929         0.111623
 H         1.750247        -0.895420        -0.522022
 H         1.379629         0.311537        -1.613912
 H        -2.485751        -1.514862         1.115790
 H        -2.314995         1.181471         1.382968
 H        -3.360903         0.073617        -1.308176
 H        -3.071588        -2.998517        -0.555634
 H        -3.762069        -3.595796        -2.840285
 H        -3.761156        -1.979674        -3.410120
 H        -2.234074        -2.612202        -3.238965
