19
Iteration:  2073charge 0 multiplicity 1
 C         1.467654         0.263513        -0.324487
 C         0.025062        -0.027774        -0.207817
 C        -1.129309        -0.205304         0.140511
 C        -2.565635        -0.239005         0.353070
 O        -3.172183         1.020368         0.753030
 C        -3.127908        -0.898936        -0.891539
 O        -4.398972        -1.516862        -0.845939
 C        -3.285090        -2.407873        -0.900364
 C        -3.529567        -3.147306        -2.208230
 H         1.994369         0.025774         0.614118
 H         1.969451        -0.408876        -1.045696
 H         1.783283         1.274345        -0.683651
 H        -2.877988        -1.029645         1.059637
 H        -3.039805         1.672142         0.032160
 H        -3.071870        -0.208552        -1.759452
 H        -3.025568        -3.034498        -0.009405
 H        -4.507659        -3.695296        -2.042115
 H        -3.690430        -2.676615        -3.150272
 H        -2.762030        -3.902010        -2.340014
