19
Iteration:  1136
 C         1.382925        -0.167787        -0.315099
 C         0.015087        -0.004054        -0.106521
 C        -1.181214         0.080144         0.112022
 C        -2.722442        -0.053963         0.306797
 O        -3.195530         1.255260         0.439264
 C        -3.241961        -0.892855        -0.902555
 O        -4.517620        -1.710569        -0.681523
 C        -3.228297        -2.340252        -0.846807
 C        -3.066852        -3.218260        -2.086640
 H         2.000421         0.673964         0.035343
 H         1.747899        -1.171708         0.254850
 H         1.864310        -0.433437        -1.303867
 H        -2.975128        -0.608004         1.279340
 H        -3.518733         1.587949        -0.391525
 H        -3.071975        -0.412720        -1.888475
 H        -3.093148        -2.871012         0.069101
 H        -3.525620        -4.187327        -1.984293
 H        -3.558188        -2.698665        -2.939120
 H        -2.060037        -3.298376        -2.469207
