19
Iteration:   737
 C         1.423319         0.386476         0.071951
 C         0.121105        -0.144500        -0.125810
 C        -1.080928        -0.179737         0.041526
 C        -2.566468        -0.124170         0.134804
 O        -3.206455         1.103552         0.187036
 C        -3.158172        -1.001990        -0.955485
 O        -4.495513        -1.391298        -0.680551
 C        -3.368129        -2.467969        -0.792823
 C        -3.398081        -3.414115        -1.992742
 H         1.821778         0.717288        -0.940317
 H         1.366611         1.196273         0.749411
 H         2.281202        -0.287887         0.268470
 H        -2.904438        -0.683399         1.087030
 H        -2.550162         1.714440        -0.319896
 H        -3.081626        -0.814795        -2.013813
 H        -3.370979        -2.851546         0.163354
 H        -4.123843        -4.209858        -1.863024
 H        -3.614898        -2.848684        -2.932749
 H        -2.374868        -3.852531        -2.172246
