19
Iteration:  2640charge 0 multiplicity 1
 C         1.571943         0.141272        -0.194727
 C         0.016339        -0.009212        -0.212333
 C        -1.216823        -0.277963        -0.010834
 C        -2.553085        -0.280968         0.349418
 O        -3.236988         0.946224         0.696986
 C        -3.207166        -0.858531        -0.826229
 O        -4.401461        -1.652647        -0.524956
 C        -3.285253        -2.297942        -1.090540
 C        -3.458074        -2.848535        -2.419230
 H         1.866043         0.520988         0.693765
 H         2.129339        -0.806898        -0.296748
 H         1.813090         0.857907        -1.023288
 H        -2.766042        -1.098434         1.126207
 H        -2.517662         1.582044         0.848537
 H        -3.261420        -0.237321        -1.684211
 H        -2.927373        -3.049133        -0.408065
 H        -3.873332        -3.870671        -2.448041
 H        -4.189869        -2.230162        -2.997123
 H        -2.583860        -3.069576        -2.984434
