19
Iteration:  4045
 C         1.455519         0.221875        -0.159603
 C         0.091260        -0.144300        -0.062520
 C        -1.074651        -0.279880         0.216185
 C        -2.475167        -0.418042         0.402970
 O        -3.002712         0.857786         0.792287
 C        -3.249136        -0.920443        -0.819369
 O        -4.413836        -1.786404        -0.470719
 C        -3.369943        -2.209791        -1.311789
 C        -3.716572        -2.547029        -2.796700
 H         1.930620        -0.005109        -1.185075
 H         1.466043         1.317815        -0.433130
 H         2.126768         0.103990         0.696739
 H        -2.771003        -1.215819         1.093496
 H        -2.672642         1.125400         1.673482
 H        -3.315552        -0.045550        -1.579759
 H        -2.763902        -3.006886        -0.695923
 H        -4.597548        -3.155364        -2.857939
 H        -3.847072        -1.590476        -3.394188
 H        -2.927601        -3.002235        -3.359188
