19
Iteration:  3324charge 0 multiplicity 1
 C         1.461713         0.025523        -0.438040
 C         0.059857        -0.111492        -0.163659
 C        -1.128690        -0.140106         0.113657
 C        -2.619600        -0.330295         0.450935
 O        -3.256094         0.787008         0.946927
 C        -3.226568        -0.788681        -0.854958
 O        -4.441928        -1.597104        -0.559703
 C        -3.252778        -2.231772        -1.101495
 C        -3.377705        -2.748501        -2.603141
 H         1.434638         0.741657        -1.176252
 H         2.128117         0.425394         0.385086
 H         2.085892        -0.900124        -0.881769
 H        -2.733380        -1.101236         1.139495
 H        -2.674096         1.446026         1.338269
 H        -3.326941        -0.254621        -1.775737
 H        -2.893414        -2.952767        -0.382386
 H        -3.908257        -3.633261        -2.849131
 H        -3.689771        -1.932682        -3.174159
 H        -2.364385        -2.863703        -2.922092
