19
Iteration:  2886charge 0 multiplicity 1
 C         1.454592         0.212961        -0.369109
 C         0.088364        -0.013793        -0.164003
 C        -1.057511        -0.214982         0.133164
 C        -2.461519        -0.359574         0.321568
 O        -3.234339         0.770988         0.985378
 C        -3.110879        -0.941291        -0.780901
 O        -4.453795        -1.347342        -0.805696
 C        -3.469731        -2.373310        -1.053075
 C        -3.422508        -2.931012        -2.405588
 H         1.859688         0.137704        -1.476639
 H         1.493156         1.304011        -0.131529
 H         1.980912        -0.324041         0.348984
 H        -2.724346        -1.261082         1.097149
 H        -3.315236         1.475644         0.316733
 H        -2.767543        -0.412347        -1.748855
 H        -3.530588        -3.001127        -0.190066
 H        -4.202501        -3.764894        -2.529725
 H        -3.784969        -2.096022        -3.157780
 H        -2.353282        -3.270145        -2.854255
