19
Iteration:  2211charge 0 multiplicity 1
 C         1.543179         0.358125        -0.124826
 C         0.137924         0.047298        -0.081674
 C        -1.060508        -0.253147         0.044114
 C        -2.591081        -0.287417         0.184468
 O        -3.036654         1.066540         0.586889
 C        -3.352516        -0.860397        -0.895901
 O        -4.456163        -1.698507        -0.515117
 C        -3.328899        -2.375741        -1.131848
 C        -3.636068        -3.121563        -2.307199
 H         1.718481         1.386670        -0.012966
 H         2.125150        -0.292793         0.603325
 H         1.917306         0.009689        -1.111515
 H        -2.883979        -1.002691         1.115494
 H        -2.200731         1.493320         0.885424
 H        -3.553648        -0.401274        -1.847101
 H        -2.759662        -2.986171        -0.478940
 H        -4.244483        -4.004150        -1.995138
 H        -4.198219        -2.581679        -3.057417
 H        -2.685855        -3.477587        -2.774762
