19
Iteration:  1446charge 0 multiplicity 1
 C         1.473369         0.372098        -0.388091
 C         0.213071        -0.101994         0.036053
 C        -1.038145        -0.053549         0.152192
 C        -2.465163        -0.305270         0.305384
 O        -3.117594         0.958770         0.434558
 C        -3.091281        -0.985963        -0.859090
 O        -4.567917        -1.304418        -0.779752
 C        -3.581496        -2.367038        -0.911897
 C        -3.447749        -3.352901        -2.112618
 H         2.176586        -0.408853        -0.339584
 H         1.355646         0.995613        -1.324894
 H         1.739103         1.099894         0.335747
 H        -2.692163        -0.943927         1.200912
 H        -3.967953         0.638972         0.810472
 H        -2.920618        -0.543696        -1.877007
 H        -3.174471        -2.855665        -0.000835
 H        -4.413822        -3.844163        -2.163773
 H        -3.363199        -2.894714        -3.108273
 H        -2.623531        -4.049014        -1.960406
