19
Iteration:  3091charge 0 multiplicity 1
 C         1.477515        -0.066261        -0.231507
 C         0.063402        -0.127103        -0.280113
 C        -1.105282        -0.012339         0.046058
 C        -2.539764        -0.326942         0.413637
 O        -3.264038         0.910324         0.810489
 C        -3.339115        -0.804929        -0.821912
 O        -4.418934        -1.749238        -0.410604
 C        -3.262873        -2.232435        -1.210710
 C        -3.389917        -2.746767        -2.622630
 H         1.701626        -0.350081         0.688007
 H         1.996100        -0.509014        -1.041400
 H         1.810231         1.025854        -0.455283
 H        -2.363826        -1.079221         1.307988
 H        -2.628538         1.548445         1.189828
 H        -3.592478         0.018120        -1.575419
 H        -2.693646        -2.891896        -0.468636
 H        -3.703110        -3.759511        -2.713556
 H        -4.102435        -2.037224        -2.951200
 H        -2.458302        -2.635199        -3.163530
