19
Iteration:  4361charge 0 multiplicity 1
 C         1.477406        -0.012299        -0.503013
 C         0.034407        -0.028875        -0.151591
 C        -1.115195        -0.244954         0.223373
 C        -2.546387        -0.464016         0.525208
 O        -3.146993         0.625779         1.229358
 C        -3.352757        -0.714959        -0.843154
 O        -4.569819        -1.591664        -0.750063
 C        -3.314184        -2.152622        -1.232978
 C        -3.299935        -2.535615        -2.713198
 H         1.875126         0.849884         0.003745
 H         2.195275        -0.835927        -0.379332
 H         1.653512         0.208006        -1.625383
 H        -2.577145        -1.340654         1.131146
 H        -2.466736         1.245169         1.537830
 H        -3.419753         0.087150        -1.554327
 H        -2.725233        -2.763866        -0.643504
 H        -3.651234        -3.554266        -2.818291
 H        -3.886438        -1.782790        -3.263914
 H        -2.248976        -2.714523        -2.972574
