19
Iteration:  1720charge 0 multiplicity 1
 C         1.500201         0.005453        -0.365338
 C        -0.060479        -0.011066        -0.124779
 C        -1.169409        -0.147634         0.251685
 C        -2.612367        -0.104516         0.409073
 O        -3.201622         1.211998         0.285421
 C        -3.237629        -0.954591        -0.681074
 O        -4.342395        -1.789744        -0.506607
 C        -3.182371        -2.462641        -0.966256
 C        -3.454352        -2.920516        -2.412335
 H         1.812388         0.951845        -0.774575
 H         1.786303        -0.244413         0.741359
 H         1.638517        -0.841931        -1.086308
 H        -3.021926        -0.509493         1.330291
 H        -2.575367         1.747266         0.841896
 H        -3.331052        -0.402547        -1.654576
 H        -2.480626        -3.032219        -0.446516
 H        -4.006679        -3.877326        -2.146313
 H        -4.202537        -2.256626        -2.971872
 H        -2.424688        -3.028466        -2.907306
