19
Iteration:  2343charge 0 multiplicity 1
 C         1.430282         0.030705        -0.501861
 C         0.117308         0.094293         0.034011
 C        -1.107162        -0.029793         0.273353
 C        -2.488866        -0.216239         0.347204
 O        -3.301999         1.008448         0.698971
 C        -3.201729        -0.932423        -0.917655
 O        -4.510252        -1.615250        -0.632833
 C        -3.333354        -2.365028        -0.998414
 C        -3.372864        -3.061826        -2.392116
 H         1.444333        -0.026737        -1.578824
 H         2.240670         0.794345        -0.160206
 H         1.847129        -1.019102        -0.197156
 H        -2.553703        -1.079550         1.054163
 H        -2.743923         1.814329         0.835655
 H        -3.348657        -0.280338        -1.792578
 H        -2.867023        -2.968549        -0.302832
 H        -3.771132        -4.142750        -2.377930
 H        -3.633285        -2.409913        -3.228205
 H        -2.260732        -3.087178        -2.711709
