19
Iteration:  4473charge 0 multiplicity 1
 C         1.353742        -0.032926        -0.411781
 C         0.050344        -0.150066         0.026725
 C        -1.136066        -0.196074         0.206317
 C        -2.472928        -0.431536         0.501884
 O        -3.097140         0.781420         0.899770
 C        -3.353808        -0.809547        -0.666329
 O        -4.372281        -1.900255        -0.498342
 C        -3.225346        -2.031423        -1.421684
 C        -3.520909        -2.342458        -2.860024
 H         1.681958         0.945205        -0.907844
 H         1.901499        -0.191524         0.534250
 H         1.616289        -0.777757        -1.129549
 H        -2.480612        -1.179220         1.242420
 H        -2.774935         0.969944         1.808703
 H        -3.680571         0.060831        -1.183478
 H        -2.359578        -2.559106        -1.027140
 H        -3.907735        -3.352290        -2.972967
 H        -4.318996        -1.675028        -3.028887
 H        -2.611732        -2.313384        -3.523737
