19
Iteration:  3608charge 0 multiplicity 1
 C         1.605726         0.153615        -0.241262
 C         0.130723         0.105093        -0.116889
 C        -1.017756        -0.057570         0.243989
 C        -2.474316        -0.338623         0.359730
 O        -3.135894         0.732519         0.945102
 C        -3.181467        -0.902510        -0.871068
 O        -4.422162        -1.644023        -0.525811
 C        -3.441961        -2.351810        -1.262591
 C        -3.755696        -2.783106        -2.733571
 H         2.026046        -0.632643         0.502392
 H         2.100727        -0.121297        -1.194582
 H         1.862079         1.258684        -0.012330
 H        -2.721957        -1.130667         1.042917
 H        -3.083814         1.588073         0.487183
 H        -3.225255        -0.110606        -1.653181
 H        -2.845113        -3.054550        -0.636745
 H        -4.584311        -3.553867        -2.559946
 H        -4.151719        -1.973783        -3.345193
 H        -2.932558        -3.477315        -3.140764
