19
Iteration:  3462charge 0 multiplicity 1
 C         1.460273         0.387187        -0.266343
 C         0.105761        -0.219415        -0.122814
 C        -1.091598        -0.299306         0.102446
 C        -2.493177        -0.416274         0.376757
 O        -3.034977         0.741043         0.877624
 C        -3.220454        -0.903380        -0.873259
 O        -4.511110        -1.436454        -0.638348
 C        -3.489455        -2.282332        -1.153917
 C        -3.506214        -2.806548        -2.565641
 H         2.100094        -0.050805        -1.277583
 H         1.263387         1.476386        -0.514365
 H         2.057211         0.436754         0.587457
 H        -2.707070        -1.230039         1.088879
 H        -2.393780         1.072146         1.545298
 H        -3.259237        -0.245279        -1.773351
 H        -3.123452        -2.880937        -0.266033
 H        -4.265979        -3.585756        -2.480022
 H        -3.718654        -1.907388        -3.285595
 H        -2.505398        -3.371930        -2.694222
