19
Iteration:  4596
 C         1.448644        -0.029782        -0.266387
 C         0.015776        -0.160037        -0.145010
 C        -1.182317        -0.187479         0.190006
 C        -2.595926        -0.439077         0.445007
 O        -2.974931         0.830891         1.063621
 C        -3.446173        -0.864001        -0.684003
 O        -4.328162        -1.998831        -0.412734
 C        -3.306477        -2.168441        -1.443520
 C        -3.521598        -2.193328        -2.940599
 H         1.674712         0.149534        -1.427502
 H         1.775765         0.993330         0.123494
 H         2.083832        -0.804917         0.087819
 H        -2.573068        -1.133441         1.282585
 H        -2.404289         1.535335         0.686800
 H        -3.897426        -0.074241        -1.350013
 H        -2.292875        -2.624238        -1.123310
 H        -3.912581        -3.211663        -3.199095
 H        -4.230558        -1.429059        -3.395478
 H        -2.424639        -2.120165        -3.216341
