19
Iteration:  1664charge 0 multiplicity 1
 C         1.467616         0.117636        -0.355518
 C         0.096962        -0.096486         0.067857
 C        -1.156421        -0.180933         0.001513
 C        -2.537954        -0.211926         0.284938
 O        -3.218903         1.077924         0.395253
 C        -3.300615        -0.885738        -0.888039
 O        -4.496464        -1.568831        -0.427242
 C        -3.367670        -2.349477        -0.877847
 C        -3.252991        -3.040692        -2.318169
 H         1.926633         1.095203        -0.326539
 H         2.255744        -0.685693        -0.055309
 H         1.494060        -0.018996        -1.451831
 H        -2.871746        -0.871231         1.033439
 H        -3.107301         1.322467         1.339760
 H        -3.316508        -0.448732        -1.927060
 H        -2.832978        -2.824937        -0.128309
 H        -3.696703        -4.063188        -2.490989
 H        -3.691602        -2.355274        -3.116973
 H        -2.215476        -3.401096        -2.614866
