19
Iteration:  4800charge 0 multiplicity 1
 C         1.286617         0.277073        -0.568267
 C         0.040547        -0.114250         0.048597
 C        -1.085140        -0.536599         0.303963
 C        -2.556826        -0.575258         0.590232
 O        -2.903076         0.533835         1.341150
 C        -3.247569        -0.840047        -0.817431
 O        -4.576069        -1.273609        -0.903445
 C        -3.422758        -2.217384        -1.333556
 C        -3.344194        -2.559233        -2.764293
 H         2.187359        -0.364375        -0.448028
 H         0.841746         0.520712        -1.546451
 H         1.595952         1.313618        -0.300095
 H        -2.859191        -1.382092         1.146256
 H        -2.311700         1.267283         1.137875
 H        -2.832692        -0.109344        -1.658219
 H        -3.135937        -2.965651        -0.529075
 H        -4.048874        -3.243727        -3.235502
 H        -3.709049        -1.645001        -3.243216
 H        -2.217478        -2.668654        -3.090184
