19
Iteration:  4746
 C         1.326476         0.137791        -0.546226
 C        -0.004324        -0.163867        -0.190906
 C        -1.144443        -0.339138         0.194070
 C        -2.501978        -0.546181         0.542728
 O        -3.183128         0.509924         1.308307
 C        -3.228825        -0.792114        -0.722375
 O        -4.455917        -1.330056        -0.653487
 C        -3.373973        -2.128576        -1.332492
 C        -3.255341        -2.522857        -2.858643
 H         1.788393        -0.910510        -0.604981
 H         1.681702         0.831138        -1.366408
 H         1.749107         0.556432         0.393627
 H        -2.565814        -1.458848         1.132948
 H        -2.545315         1.230878         1.444310
 H        -3.059761         0.040393        -1.553365
 H        -2.967583        -3.021332        -0.818613
 H        -4.195745        -3.094256        -2.845064
 H        -3.320889        -1.577157        -3.345774
 H        -2.266486        -3.109799        -3.203905
