19
Iteration:  2307
 C         1.431454         0.152846        -0.340902
 C         0.030708        -0.039279        -0.153927
 C        -1.106065        -0.075131         0.076739
 C        -2.509843        -0.310266         0.455265
 O        -3.249049         0.970394         0.526111
 C        -3.166796        -0.969268        -0.757663
 O        -4.492293        -1.560282        -0.618734
 C        -3.241306        -2.432509        -0.971265
 C        -3.450465        -2.934614        -2.391347
 H         1.714602         0.701087        -1.309901
 H         1.907543         0.657453         0.554788
 H         1.831437        -0.887985        -0.342847
 H        -2.645507        -0.721948         1.398943
 H        -2.575253         1.613268         0.802419
 H        -3.048840        -0.318987        -1.628562
 H        -3.008370        -3.073519        -0.045351
 H        -3.941715        -3.919465        -2.507028
 H        -3.967211        -2.159326        -2.991509
 H        -2.372126        -3.040306        -2.732957
