19
Iteration:  3007charge 0 multiplicity 1
 C         1.475220         0.226880        -0.371073
 C         0.089236        -0.170098        -0.118307
 C        -1.100401        -0.360476         0.223688
 C        -2.615706        -0.258067         0.450635
 O        -3.168577         0.938904         0.759729
 C        -3.338042        -0.834255        -0.802611
 O        -4.460730        -1.606114        -0.540774
 C        -3.275256        -2.267434        -1.160355
 C        -3.427791        -2.876865        -2.591098
 H         2.198338        -0.730064        -0.447787
 H         1.532360         0.519236        -1.431755
 H         1.799353         0.846007         0.369962
 H        -2.783686        -1.055934         1.179756
 H        -2.370717         1.342549         1.162401
 H        -3.334874        -0.062923        -1.636238
 H        -2.604585        -2.703587        -0.491405
 H        -3.974301        -3.815212        -2.739830
 H        -3.860296        -2.148120        -3.365097
 H        -2.335435        -2.923490        -2.939559
