19
Iteration:  3866
 C         1.367659        -0.137267        -0.570244
 C         0.015354         0.014148        -0.111402
 C        -1.175126        -0.161271         0.174091
 C        -2.555427        -0.308449         0.579771
 O        -3.243738         0.750028         1.188236
 C        -3.289912        -0.726923        -0.776113
 O        -4.480286        -1.616679        -0.710045
 C        -3.220105        -2.155467        -1.245928
 C        -3.185628        -2.732811        -2.674204
 H         1.758075         0.650668        -1.203205
 H         2.202664        -0.381993         0.102309
 H         1.322473        -1.005194        -1.323779
 H        -2.614431        -1.244643         1.236462
 H        -2.977743         1.617891         0.810418
 H        -3.279915         0.010918        -1.519683
 H        -2.784084        -2.724798        -0.446027
 H        -3.873518        -3.575467        -2.797708
 H        -3.557981        -1.872057        -3.171032
 H        -2.208004        -3.000487        -3.104762
