19
Iteration:  4054charge 0 multiplicity 1
 C         1.467321         0.252784        -0.183852
 C         0.121921        -0.109372        -0.032486
 C        -1.068316        -0.315902         0.113688
 C        -2.484985        -0.489551         0.445168
 O        -3.046866         0.915573         0.817148
 C        -3.222993        -0.885854        -0.802786
 O        -4.395884        -1.737899        -0.515566
 C        -3.378346        -2.294037        -1.359177
 C        -3.731675        -2.553337        -2.750901
 H         1.969804        -0.353106        -0.959370
 H         1.476229         1.399012        -0.333029
 H         1.988281        -0.021186         0.835000
 H        -2.607503        -1.148316         1.275497
 H        -2.607164         0.956617         1.684556
 H        -3.539986        -0.007944        -1.469042
 H        -2.577059        -2.980019        -0.929437
 H        -4.638850        -3.215477        -2.853707
 H        -4.021047        -1.570940        -3.230820
 H        -2.894568        -3.056363        -3.272979
