19
Iteration:  1494charge 0 multiplicity 1
 C         1.460821         0.269713        -0.370084
 C        -0.016269         0.174185        -0.178978
 C        -1.064062        -0.133711         0.276995
 C        -2.496790        -0.288258         0.402007
 O        -3.124485         0.980575         0.529030
 C        -2.971432        -1.040095        -0.826340
 O        -4.427289        -1.422633        -0.891937
 C        -3.388060        -2.460012        -0.871944
 C        -3.611596        -3.194996        -2.109033
 H         1.850246        -0.591517         0.321543
 H         1.554138         0.106722        -1.429903
 H         2.020130         1.269993        -0.185617
 H        -2.891277        -0.675584         1.340977
 H        -3.476082         0.817076        -0.340174
 H        -2.586970        -0.638800        -1.743063
 H        -3.669706        -3.023524         0.095037
 H        -4.525942        -3.757208        -2.091391
 H        -3.773403        -2.500637        -2.934936
 H        -2.721058        -3.728834        -2.378805
