19
Iteration:  4431
 C         1.493611        -0.092595        -0.446219
 C         0.110736        -0.089974        -0.128849
 C        -1.106151        -0.169957         0.143901
 C        -2.533455        -0.356101         0.482688
 O        -3.270438         0.739502         1.125667
 C        -3.340630        -0.834991        -0.723354
 O        -4.474980        -1.797866        -0.550226
 C        -3.187350        -2.176888        -1.306978
 C        -3.460173        -2.347341        -2.856856
 H         1.777892         1.030142        -0.439143
 H         2.169228        -0.553365         0.311971
 H         1.783708        -0.571276        -1.356704
 H        -2.612232        -1.166416         1.246168
 H        -2.667803         1.303052         1.637173
 H        -3.485358        -0.065151        -1.515016
 H        -2.569060        -2.997424        -0.717597
 H        -3.996358        -3.282213        -3.139947
 H        -3.956073        -1.433778        -3.260975
 H        -2.352440        -2.416152        -3.204708
