19
Iteration:  4326charge 0 multiplicity 1
 C         1.359232         0.096035        -0.559619
 C         0.064894        -0.154090         0.033220
 C        -1.165353        -0.296533         0.140259
 C        -2.519793        -0.476026         0.583401
 O        -3.093818         0.659158         1.188662
 C        -3.240887        -0.805324        -0.808422
 O        -4.490676        -1.463173        -0.725725
 C        -3.418030        -2.189800        -1.305795
 C        -3.290889        -2.617004        -2.742474
 H         1.835613         0.837449         0.067520
 H         2.074104        -0.757935        -0.752201
 H         0.998282         0.853655        -1.361263
 H        -2.681772        -1.254467         1.281615
 H        -2.419272         1.273383         1.519491
 H        -3.169423         0.081168        -1.560963
 H        -2.955763        -2.743410        -0.532614
 H        -3.889684        -3.557026        -2.854358
 H        -3.781304        -1.954972        -3.559510
 H        -2.240425        -2.500542        -3.000734
