19
Iteration:  1169
 C         1.453255        -0.089265        -0.238559
 C        -0.045184        -0.038230        -0.185189
 C        -1.217157        -0.096209         0.017449
 C        -2.728643        -0.107036         0.305692
 O        -3.250059         1.226469         0.342555
 C        -3.230856        -0.874766        -0.898134
 O        -4.446682        -1.625981        -0.559638
 C        -3.219873        -2.330495        -0.869086
 C        -3.108808        -3.222624        -2.143864
 H         1.874831         0.905324        -0.118659
 H         1.636455        -0.624634         0.809944
 H         1.782565        -0.592019        -1.202281
 H        -3.048530        -0.482155         1.305747
 H        -2.585135         1.825476         0.697231
 H        -3.154784        -0.343927        -1.873798
 H        -3.023446        -2.839121         0.052805
 H        -3.436852        -4.241096        -1.952585
 H        -3.762051        -2.731845        -2.901905
 H        -2.084166        -3.255419        -2.493822
