19
Iteration:  3203charge 0 multiplicity 1
 C         1.482208        -0.010730        -0.445490
 C         0.023432        -0.183964        -0.105951
 C        -1.143363        -0.242313         0.218303
 C        -2.569512        -0.330143         0.472575
 O        -3.286397         1.020380         0.629849
 C        -3.273638        -0.880504        -0.696797
 O        -4.382434        -1.811717        -0.509231
 C        -3.228113        -2.280594        -1.101760
 C        -3.395297        -2.515618        -2.629676
 H         1.799982         0.806278         0.022165
 H         2.092589        -0.849199        -0.028379
 H         1.709026         0.277693        -1.528215
 H        -2.626636        -0.892621         1.499823
 H        -2.731554         1.491963         1.274967
 H        -3.531899        -0.020060        -1.356561
 H        -2.724330        -3.075301        -0.523681
 H        -3.673086        -3.458298        -2.909324
 H        -4.043739        -1.784629        -3.103377
 H        -2.430889        -2.406373        -3.083180
