19
Iteration:  4528charge 0 multiplicity 1
 C         1.429518         0.010880        -0.309451
 C         0.011254        -0.237049        -0.130809
 C        -1.116722        -0.306740         0.271661
 C        -2.599542        -0.405035         0.443217
 O        -3.066565         0.860457         0.974691
 C        -3.443740        -0.828884        -0.702656
 O        -4.255438        -1.949962        -0.412500
 C        -3.228263        -2.106178        -1.443770
 C        -3.579667        -2.270620        -2.907008
 H         1.409307         0.835080        -1.109935
 H         1.930430         0.523397         0.540725
 H         2.064011        -0.812484        -0.572754
 H        -2.789676        -1.190852         1.187380
 H        -2.266950         1.364109         1.182937
 H        -3.806162        -0.031344        -1.378155
 H        -2.396498        -2.747392        -1.129521
 H        -3.757520        -3.293456        -3.193988
 H        -4.365601        -1.627968        -3.148572
 H        -2.648111        -1.774390        -3.284013
