19
Iteration:  4557charge 0 multiplicity 1
 C         1.427947         0.012650        -0.266302
 C         0.021985        -0.117569        -0.061697
 C        -1.128133        -0.373578         0.028892
 C        -2.526496        -0.441679         0.517645
 O        -3.056868         0.880799         0.958344
 C        -3.463096        -0.887141        -0.548577
 O        -4.358420        -2.008290        -0.536397
 C        -3.190515        -2.031886        -1.415190
 C        -3.543526        -2.227605        -2.858497
 H         1.417640         0.442576        -1.197950
 H         1.988686         0.646862         0.365092
 H         1.993284        -0.989598        -0.360833
 H        -2.522035        -1.154860         1.425712
 H        -2.324478         1.481810         0.746592
 H        -3.757222        -0.002926        -1.048768
 H        -2.527155        -2.780684        -1.087289
 H        -3.834481        -3.278380        -3.028619
 H        -4.345363        -1.505210        -3.114907
 H        -2.728323        -1.927282        -3.465195
