19
Iteration:  2318
 C         1.495230         0.095142        -0.379711
 C         0.017671         0.006347        -0.070615
 C        -1.199576        -0.037422         0.095625
 C        -2.580298        -0.296908         0.410312
 O        -3.255365         1.012929         0.588220
 C        -3.171925        -1.001872        -0.779455
 O        -4.388442        -1.532199        -0.596103
 C        -3.345784        -2.444194        -0.984314
 C        -3.390115        -2.962372        -2.394748
 H         1.625509         0.485108        -1.455595
 H         2.124001         0.773893         0.267439
 H         2.007688        -0.890952        -0.435026
 H        -2.630565        -0.947703         1.241894
 H        -2.541660         1.674051         0.823275
 H        -3.086979        -0.403445        -1.688512
 H        -3.022658        -3.249943        -0.253265
 H        -3.886269        -3.958276        -2.450953
 H        -3.928826        -2.275751        -3.063655
 H        -2.377736        -3.083759        -2.896710
