19
Iteration:  3557charge 0 multiplicity 1
 C         1.560653         0.322081        -0.203431
 C         0.206162        -0.048422         0.007237
 C        -0.984699        -0.296023         0.039782
 C        -2.449398        -0.438988         0.311801
 O        -3.207428         0.761644         0.892844
 C        -3.229457        -0.893909        -0.916808
 O        -4.468465        -1.517201        -0.611402
 C        -3.354674        -2.409463        -1.186732
 C        -3.751970        -2.711722        -2.538363
 H         2.101337        -0.540675        -0.172703
 H         1.629717         0.683257        -1.233865
 H         1.880085         1.278883         0.391100
 H        -2.642124        -1.309519         1.106392
 H        -2.507903         1.459527         0.916750
 H        -3.386174        -0.101684        -1.747750
 H        -2.813558        -3.038344        -0.392653
 H        -4.398686        -3.624621        -2.492107
 H        -4.221431        -1.914290        -3.184825
 H        -2.892008        -2.982798        -3.122896
