19
Iteration:  2163charge 0 multiplicity 1
 C         1.601946         0.288081        -0.126636
 C         0.143819         0.058638        -0.194055
 C        -1.065407        -0.074619         0.000311
 C        -2.528335        -0.318427         0.350394
 O        -3.189601         0.958939         0.537593
 C        -3.096206        -1.012542        -0.901054
 O        -4.498223        -1.561108        -0.543640
 C        -3.398063        -2.517292        -0.939622
 C        -3.676784        -3.007920        -2.349415
 H         1.717036         1.147347         0.701299
 H         2.057611        -0.632851         0.212827
 H         2.174948         0.567085        -1.032437
 H        -2.507219        -0.808277         1.385945
 H        -3.008583         1.519047        -0.226931
 H        -3.176728        -0.363368        -1.834142
 H        -2.975099        -3.226577        -0.221849
 H        -4.037586        -4.049173        -2.320883
 H        -4.388642        -2.379130        -2.975622
 H        -2.730676        -3.016554        -2.947211
