19
Iteration:    83charge 0 multiplicity 1
 C         1.506456         0.253360        -0.121860
 C         0.144086         0.068433         0.157165
 C        -1.057281        -0.042874         0.137600
 C        -2.444064        -0.221539         0.064952
 O        -3.328750         1.096641         0.015852
 C        -3.185336        -1.028762        -1.044964
 O        -4.563542        -1.487889        -0.871379
 C        -3.456506        -2.339118        -0.685056
 C        -3.337994        -3.453526        -1.670613
 H         1.929276         0.942333         0.660512
 H         1.927316        -0.777551        -0.304089
 H         1.779017         0.775342        -1.012806
 H        -2.824946        -0.717829         1.041158
 H        -2.760750         1.781632        -0.488863
 H        -2.946933        -0.763714        -2.105008
 H        -3.296234        -2.390844         0.529262
 H        -4.114099        -4.281124        -1.715722
 H        -3.210675        -3.037349        -2.702109
 H        -2.356159        -3.977135        -1.561159
