19
Iteration:  1927
 C         1.363544        -0.039581        -0.519727
 C        -0.035047        -0.088375        -0.077704
 C        -1.166107        -0.165420         0.243468
 C        -2.626525        -0.177139         0.404017
 O        -3.256711         1.080480         0.481034
 C        -3.277529        -0.815700        -0.862967
 O        -4.335819        -1.608249        -0.659885
 C        -3.097076        -2.257720        -0.954105
 C        -3.292419        -3.036800        -2.217814
 H         1.745093        -0.928362        -0.907583
 H         1.582513         0.835997        -1.199591
 H         2.095480         0.142332         0.276789
 H        -2.912195        -0.755543         1.305099
 H        -3.307996         1.381373         1.385515
 H        -3.395169        -0.205129        -1.794704
 H        -2.733851        -2.785076        -0.048201
 H        -4.062580        -3.746462        -1.948690
 H        -3.572325        -2.664936        -3.199259
 H        -2.490388        -3.737503        -2.473622
