19
Iteration:  1439charge 0 multiplicity 1
 C         1.502593         0.373350        -0.381789
 C         0.173208        -0.101091         0.058567
 C        -1.020066        -0.052788         0.132715
 C        -2.432240        -0.355255         0.270104
 O        -3.134142         0.976524         0.446917
 C        -3.187640        -0.965295        -0.887197
 O        -4.563032        -1.325704        -0.803013
 C        -3.532785        -2.380014        -0.915211
 C        -3.471431        -3.325830        -2.082089
 H         2.465649        -0.243191        -0.647560
 H         1.561517         0.967163        -1.289388
 H         1.752518         1.060594         0.525087
 H        -2.701412        -0.795304         1.230602
 H        -3.782636         0.632392         1.000126
 H        -2.858412        -0.460010        -1.793240
 H        -3.528970        -2.894658         0.145860
 H        -4.332812        -3.996057        -2.091799
 H        -3.243396        -2.833860        -3.055159
 H        -2.662328        -4.039900        -1.959378
