19
Iteration:  4206charge 0 multiplicity 1
 C         1.529750         0.302361        -0.324682
 C         0.143616        -0.031575         0.014517
 C        -1.050227        -0.351538         0.125131
 C        -2.478959        -0.538323         0.442830
 O        -3.125093         0.644669         0.989821
 C        -3.292572        -0.842387        -0.729288
 O        -4.484789        -1.457734        -0.699333
 C        -3.399935        -2.218275        -1.285948
 C        -3.606557        -2.643762        -2.744505
 H         2.202576        -0.362124         0.235072
 H         1.662040         0.055246        -1.448542
 H         1.895088         1.430571        -0.103111
 H        -2.530568        -1.482851         1.148080
 H        -2.541945         0.927533         1.705619
 H        -3.210254        -0.011578        -1.550549
 H        -2.976742        -3.035970        -0.701340
 H        -4.564586        -3.210710        -2.501069
 H        -3.630147        -1.933475        -3.662895
 H        -2.798733        -3.376579        -3.013556
