19
Iteration:   501charge 0 multiplicity 1
 C         1.230555        -0.170052        -0.096650
 C        -0.144430        -0.138001        -0.276602
 C        -1.321110         0.016608         0.076331
 C        -2.704639         0.001050         0.231943
 O        -3.263392         1.405663         0.164987
 C        -3.145920        -0.963437        -0.879000
 O        -4.324458        -1.665260        -0.622111
 C        -3.151740        -2.377132        -0.796379
 C        -3.036111        -3.281308        -1.951792
 H         1.549226        -0.034215         0.939899
 H         1.773171        -1.153740        -0.289037
 H         1.517966         0.779428        -0.558543
 H        -3.213638        -0.236524         1.188886
 H        -2.650531         1.981829        -0.371076
 H        -2.966397        -0.606407        -1.882794
 H        -2.593388        -2.775297         0.168260
 H        -3.282096        -4.323131        -1.680140
 H        -3.536211        -3.135013        -2.892817
 H        -2.028906        -3.266406        -2.297396
