19
Iteration:   658
 C         1.452489         0.142749        -0.274440
 C         0.046867         0.001035         0.195018
 C        -1.154353         0.042818         0.256232
 C        -2.595206        -0.162020         0.118483
 O        -3.249196         1.225793         0.152530
 C        -3.148354        -1.019949        -0.928490
 O        -4.514953        -1.493536        -0.803080
 C        -3.447593        -2.393497        -0.804060
 C        -3.145613        -3.452256        -1.965599
 H         1.715294         1.054561        -0.896077
 H         2.202212        -0.193790         0.518258
 H         1.525624        -0.726470        -0.922229
 H        -2.923532        -0.662685         1.094914
 H        -2.578517         1.894403         0.560861
 H        -3.091254        -0.906208        -2.045580
 H        -3.310877        -2.827466         0.170630
 H        -3.928487        -4.148029        -1.849001
 H        -3.410946        -3.036564        -2.931005
 H        -2.187803        -3.935777        -1.752455
