19
Iteration:  3456
 C         1.482812         0.405374        -0.299402
 C         0.110255        -0.241503        -0.123050
 C        -1.081658        -0.303093         0.122998
 C        -2.484438        -0.447092         0.368896
 O        -3.083417         0.781691         0.893891
 C        -3.274861        -0.901047        -0.858241
 O        -4.492070        -1.411810        -0.624660
 C        -3.465545        -2.270692        -1.190708
 C        -3.498753        -2.820801        -2.545281
 H         1.907946        -0.010258        -1.069654
 H         1.263359         1.431946        -0.518005
 H         2.230196         0.291103         0.580664
 H        -2.540078        -1.298793         1.121079
 H        -2.425379         1.084575         1.531416
 H        -3.144985        -0.292640        -1.741796
 H        -3.085137        -2.939616        -0.455489
 H        -4.283444        -3.601112        -2.604392
 H        -3.663206        -2.167302        -3.331278
 H        -2.615649        -3.359006        -2.795205
