19
Iteration:  3723
 C         1.352494         0.149825        -0.442755
 C        -0.009985        -0.107845        -0.109754
 C        -1.177548        -0.281916         0.145441
 C        -2.650234        -0.420643         0.511930
 O        -2.986211         0.847954         1.025469
 C        -3.275418        -0.797689        -0.782136
 O        -4.522383        -1.609709        -0.697627
 C        -3.282368        -2.215271        -1.197426
 C        -3.308944        -2.745535        -2.620853
 H         1.881214         0.514771         0.385551
 H         1.870189        -0.822801        -0.657312
 H         1.599481         0.701285        -1.407411
 H        -2.742839        -1.206882         1.324775
 H        -2.212180         1.436100         0.910683
 H        -3.196804        -0.121291        -1.585687
 H        -2.719964        -2.770582        -0.486561
 H        -3.604614        -3.739003        -2.744013
 H        -4.101877        -2.145785        -3.008007
 H        -2.524773        -2.521346        -3.293402
