19
Iteration:  1721
 C         1.493170         0.003250        -0.360506
 C        -0.065292        -0.006280        -0.127691
 C        -1.178112        -0.150142         0.250425
 C        -2.606236        -0.106219         0.405133
 O        -3.195348         1.211806         0.290068
 C        -3.237586        -0.942142        -0.688453
 O        -4.337681        -1.794626        -0.501720
 C        -3.180847        -2.463067        -0.965964
 C        -3.456199        -2.925176        -2.417017
 H         1.809506         0.941134        -0.763785
 H         1.762568        -0.229035         0.706727
 H         1.578687        -0.856557        -1.038594
 H        -2.988256        -0.480886         1.333578
 H        -2.566784         1.740234         0.811993
 H        -3.301109        -0.392051        -1.641543
 H        -2.450902        -3.060654        -0.439685
 H        -4.017979        -3.866286        -2.158983
 H        -4.189814        -2.267255        -2.961375
 H        -2.440897        -3.010395        -2.894243
