19
Iteration:   431
 C         1.468990        -0.124080        -0.163564
 C         0.029045         0.038875         0.264673
 C        -1.189286        -0.055489         0.003545
 C        -2.706262        -0.054475         0.045801
 O        -3.299735         1.284465        -0.012024
 C        -3.436166        -0.925749        -0.937772
 O        -4.489939        -1.655443        -0.377135
 C        -3.176585        -2.413863        -0.789554
 C        -3.023608        -3.219100        -2.052308
 H         2.119435        -0.911831         0.290359
 H         1.539726        -0.424760        -1.169672
 H         1.876876         0.883039         0.166619
 H        -2.957765        -0.428252         1.054023
 H        -2.788373         1.541268        -0.778666
 H        -3.592786        -0.477958        -1.944875
 H        -2.674478        -2.911969         0.000949
 H        -3.488582        -4.197229        -2.063492
 H        -3.216301        -2.697175        -3.013228
 H        -1.899092        -3.264015        -2.045973
