19
Iteration:  3544charge 0 multiplicity 1
 C         1.564687         0.375774        -0.249769
 C         0.156241        -0.043535         0.003456
 C        -1.033357        -0.251227         0.110629
 C        -2.454648        -0.481879         0.310283
 O        -3.072116         0.771410         0.876888
 C        -3.264689        -0.904331        -0.914498
 O        -4.516329        -1.532011        -0.593925
 C        -3.475144        -2.311310        -1.131276
 C        -3.671138        -2.833770        -2.641119
 H         2.249004        -0.424017        -0.150459
 H         1.762940         0.825989        -1.228363
 H         2.016925         0.951630         0.700426
 H        -2.656026        -1.259313         1.180114
 H        -2.429893         1.442261         1.134351
 H        -3.160841        -0.203352        -1.801271
 H        -2.934050        -3.074124        -0.509062
 H        -4.414492        -3.668133        -2.829715
 H        -4.230273        -1.941783        -2.910154
 H        -2.760811        -2.971152        -3.235383
