19
Iteration:  4351charge 0 multiplicity 1
 C         1.453660         0.044260        -0.525110
 C         0.055230        -0.103687        -0.091184
 C        -1.094847        -0.197426         0.216725
 C        -2.544863        -0.467185         0.493727
 O        -3.114307         0.600891         1.192566
 C        -3.401761        -0.796173        -0.747442
 O        -4.577757        -1.533909        -0.769733
 C        -3.280686        -2.105618        -1.303988
 C        -3.262140        -2.572968        -2.673111
 H         1.991048         0.852358        -0.014602
 H         1.985214        -0.906459        -0.339229
 H         1.366480         0.379992        -1.601949
 H        -2.670136        -1.345219         1.146094
 H        -2.398773         1.213256         1.461971
 H        -3.414047         0.020487        -1.403335
 H        -3.004400        -2.804142        -0.557568
 H        -3.854136        -3.473236        -2.655196
 H        -3.880728        -1.912255        -3.307704
 H        -2.256336        -2.606625        -3.191037
