19
Iteration:  4157
 C         1.589649         0.209760        -0.129210
 C         0.105180         0.012169        -0.153112
 C        -1.072723        -0.096488         0.066194
 C        -2.409420        -0.542101         0.373317
 O        -3.073388         0.582389         1.048317
 C        -3.277653        -0.866627        -0.925104
 O        -4.584381        -1.490278        -0.669061
 C        -3.323507        -2.227542        -1.276015
 C        -3.699041        -2.691850        -2.654076
 H         2.092208        -0.803538         0.247484
 H         2.002773         0.642068        -1.037240
 H         1.791567         0.878288         0.626550
 H        -2.362584        -1.467208         0.915082
 H        -2.348790         1.107633         1.460452
 H        -3.416766        -0.141065        -1.679634
 H        -2.874575        -2.932642        -0.527359
 H        -4.153198        -3.643993        -2.673900
 H        -4.396103        -1.951234        -2.941825
 H        -2.870433        -2.622777        -3.354675
