19
Iteration:  2760
 C         1.468194         0.348732        -0.259141
 C         0.092156        -0.064024        -0.216471
 C        -1.032251        -0.299416         0.205601
 C        -2.445729        -0.323402         0.394141
 O        -3.204464         0.883293         0.733973
 C        -3.077740        -1.009390        -0.829729
 O        -4.537708        -1.504666        -0.609630
 C        -3.466944        -2.373097        -1.117905
 C        -3.547625        -2.889716        -2.497247
 H         1.627001         1.359787        -0.409077
 H         1.768468         0.048391         0.784802
 H         2.139133        -0.276883        -0.974415
 H        -2.504488        -0.877032         1.366988
 H        -2.739475         1.654092         0.347355
 H        -2.838520        -0.393210        -1.666979
 H        -3.149697        -3.079435        -0.269756
 H        -4.209298        -3.688518        -2.746872
 H        -3.642701        -2.062636        -3.211544
 H        -2.571005        -3.309598        -2.634637
