19
Iteration:  3017charge 0 multiplicity 1
 C         1.473481         0.153504        -0.375674
 C         0.079530        -0.090690        -0.083615
 C        -1.079595        -0.307862         0.180115
 C        -2.538996        -0.374291         0.395086
 O        -3.150252         0.992953         0.777268
 C        -3.346763        -0.837264        -0.833172
 O        -4.526771        -1.643372        -0.505786
 C        -3.328751        -2.275106        -1.148138
 C        -3.366311        -2.846408        -2.632332
 H         2.130860        -0.833265        -0.148145
 H         1.581870         0.555739        -1.410792
 H         1.890637         0.945954         0.238162
 H        -2.750486        -0.919086         1.269277
 H        -2.553083         1.497285         1.356384
 H        -3.581363         0.024123        -1.539742
 H        -2.666661        -2.824063        -0.494458
 H        -3.752899        -3.851522        -2.658406
 H        -3.974205        -2.154924        -3.246213
 H        -2.317958        -2.987855        -3.006874
