19
Iteration:  4177charge 0 multiplicity 1
 C         1.541560         0.238444        -0.162155
 C         0.085335         0.002567        -0.203384
 C        -1.068007        -0.227515         0.183191
 C        -2.475878        -0.439739         0.355529
 O        -3.072891         0.607781         1.084212
 C        -3.202181        -0.800862        -0.910812
 O        -4.416076        -1.496633        -0.630888
 C        -3.507345        -2.287557        -1.258274
 C        -3.665276        -2.693247        -2.758723
 H         1.996712        -0.637706         0.306784
 H         1.807655         0.451968        -1.187073
 H         1.808428         1.106172         0.388601
 H        -2.609900        -1.364403         0.893871
 H        -2.380904         0.977201         1.660576
 H        -3.280925        -0.006520        -1.671857
 H        -2.956690        -2.995638        -0.582506
 H        -4.253870        -3.594403        -2.714244
 H        -4.198248        -2.017734        -3.443639
 H        -2.713457        -3.093260        -3.116554
