19
Iteration:  2855
 C         1.512052         0.247639        -0.340009
 C         0.091060        -0.043784        -0.218478
 C        -1.064221        -0.094688         0.176930
 C        -2.503978        -0.403005         0.418827
 O        -3.194441         0.689582         0.979239
 C        -3.132777        -0.789703        -0.857995
 O        -4.454391        -1.373753        -0.835183
 C        -3.441115        -2.256470        -1.175249
 C        -3.536540        -3.096863        -2.362254
 H         1.883791         0.497443        -1.364451
 H         1.664834         1.016245         0.432875
 H         2.128646        -0.548722         0.134294
 H        -2.786453        -1.270855         1.088489
 H        -3.089261         1.450769         0.368707
 H        -2.944120        -0.079471        -1.654092
 H        -3.125102        -2.779018        -0.273151
 H        -4.101039        -3.998088        -2.121433
 H        -3.945536        -2.538875        -3.278222
 H        -2.506463        -3.444365        -2.613490
