19
Iteration:  4652
 C         1.438016        -0.013116        -0.380188
 C         0.076062        -0.171693        -0.120401
 C        -1.078867        -0.216789         0.286096
 C        -2.567170        -0.416950         0.436139
 O        -3.162662         0.660679         1.185352
 C        -3.359035        -0.752342        -0.798774
 O        -4.337789        -1.798109        -0.573295
 C        -3.204055        -2.075004        -1.333880
 C        -3.535805        -2.365871        -2.889584
 H         1.520961        -0.566626        -1.394626
 H         1.894094         0.992179        -0.544350
 H         2.108619        -0.494751         0.333619
 H        -2.625530        -1.254452         1.088430
 H        -3.048410         1.496796         0.720997
 H        -3.671458         0.063547        -1.443966
 H        -2.411636        -2.736467        -0.861721
 H        -3.862494        -3.418608        -2.879540
 H        -4.390736        -1.597694        -2.815211
 H        -2.838461        -2.049743        -3.641608
