19
Iteration:  3079
 C         1.543362        -0.048187        -0.225720
 C         0.028811        -0.030604        -0.264918
 C        -1.188461        -0.080900        -0.044174
 C        -2.498902        -0.259281         0.432595
 O        -3.218769         0.905793         0.811961
 C        -3.285998        -0.866608        -0.800993
 O        -4.458281        -1.756495        -0.480131
 C        -3.320650        -2.296881        -1.102449
 C        -3.400483        -2.682305        -2.601572
 H         1.997007        -0.518662         0.523050
 H         1.890845        -0.635201        -1.030338
 H         1.943944         1.041526        -0.150834
 H        -2.737125        -1.142469         1.181403
 H        -2.635340         1.520221         1.280289
 H        -3.615437        -0.095603        -1.528864
 H        -2.507912        -2.886329        -0.520428
 H        -3.635838        -3.750056        -2.801442
 H        -4.100234        -2.189511        -3.245656
 H        -2.415044        -2.446293        -3.001111
