19
Iteration:   604
 C         1.428235        -0.089537        -0.221356
 C        -0.089911        -0.012348        -0.242284
 C        -1.225871        -0.084457         0.264560
 C        -2.679121        -0.024152         0.314871
 O        -3.376428         1.232615         0.044483
 C        -3.102983        -0.967411        -0.827660
 O        -4.388706        -1.484344        -0.837522
 C        -3.188779        -2.407555        -0.675899
 C        -3.126718        -3.339873        -1.935902
 H         1.686252         0.913464         0.138259
 H         1.898620        -0.757955         0.492086
 H         1.794150        -0.355445        -1.193930
 H        -2.981674        -0.381277         1.296990
 H        -3.403302         1.898008         0.809892
 H        -2.839380        -0.752457        -1.879274
 H        -3.093651        -2.781147         0.316229
 H        -3.912050        -4.086131        -1.884055
 H        -3.123847        -2.631223        -2.789086
 H        -2.076606        -3.804558        -2.040601
