19
Iteration:  2970
 C         1.334678         0.247495        -0.416752
 C        -0.010821        -0.188767        -0.055187
 C        -1.168264        -0.241596         0.261943
 C        -2.575221        -0.337067         0.471658
 O        -3.063506         0.901247         0.789381
 C        -3.166779        -0.861881        -0.826169
 O        -4.410143        -1.564688        -0.701932
 C        -3.216420        -2.313994        -1.136286
 C        -3.523454        -2.857193        -2.501142
 H         1.909595        -0.625277        -0.848470
 H         1.313459         1.103721        -1.118508
 H         2.007695         0.647633         0.478057
 H        -2.858043        -1.064936         1.191867
 H        -2.391054         1.603089         0.841585
 H        -3.028311        -0.368870        -1.805534
 H        -2.856998        -3.127029        -0.430840
 H        -4.393370        -3.480281        -2.617691
 H        -3.641631        -1.972761        -3.037820
 H        -2.674684        -3.355474        -2.896963
