19
Iteration:  3821
 C         1.281405        -0.033956        -0.650600
 C        -0.055097        -0.175984        -0.194226
 C        -1.155257        -0.234261         0.362715
 C        -2.592697        -0.277688         0.529879
 O        -3.243819         0.839355         1.065987
 C        -3.146710        -0.863302        -0.711957
 O        -4.374828        -1.563520        -0.667120
 C        -3.248533        -2.335063        -1.110672
 C        -3.214953        -2.537145        -2.722980
 H         1.723734         0.886980        -0.607791
 H         1.854690        -0.637182         0.092018
 H         1.608713        -0.508672        -1.667308
 H        -2.903282        -1.055702         1.285538
 H        -3.351626         1.686107         0.593383
 H        -3.241680        -0.159468        -1.472380
 H        -2.873377        -3.086573        -0.491787
 H        -3.994842        -3.169925        -3.127232
 H        -3.145391        -1.644933        -3.320225
 H        -2.305654        -3.126163        -2.945743
