19
Iteration:   428charge 0 multiplicity 1
 C         1.473074        -0.114614        -0.149427
 C         0.030089         0.040257         0.250671
 C        -1.231829        -0.055619         0.003629
 C        -2.720397        -0.044362         0.050467
 O        -3.288081         1.280924        -0.007592
 C        -3.396185        -0.920540        -0.942464
 O        -4.490058        -1.651241        -0.361131
 C        -3.168968        -2.433082        -0.802550
 C        -3.040675        -3.198919        -2.035975
 H         2.169520        -0.892688         0.247382
 H         1.519544        -0.378284        -1.251165
 H         1.845527         0.798925         0.242789
 H        -3.044178        -0.405110         1.042157
 H        -2.697841         1.621735        -0.795166
 H        -3.533600        -0.505934        -2.020283
 H        -2.673852        -2.976711        -0.015150
 H        -3.515765        -4.272806        -2.128696
 H        -3.274925        -2.804025        -3.069833
 H        -1.808405        -3.406245        -2.122433
