19
Iteration:  1215
 C         1.499714         0.065794        -0.215485
 C         0.096082        -0.141321         0.015740
 C        -1.115406        -0.130282         0.042968
 C        -2.665800        -0.113832         0.156405
 O        -3.184426         1.283570         0.317627
 C        -3.301191        -0.937927        -0.882048
 O        -4.519336        -1.683269        -0.491921
 C        -3.258526        -2.364891        -0.884299
 C        -3.267296        -3.157782        -2.193045
 H         1.725263         0.942795        -0.832746
 H         2.225883         0.092085         0.790763
 H         1.873099        -0.751222        -0.863441
 H        -2.769988        -0.549688         1.192978
 H        -4.109295         1.344816         0.205657
 H        -3.432801        -0.293946        -1.798147
 H        -2.637870        -2.814264        -0.123891
 H        -3.677485        -4.134311        -2.064171
 H        -3.652506        -2.632197        -3.030963
 H        -2.244960        -3.322932        -2.451322
