19
Iteration:  4459charge 0 multiplicity 1
 C         1.494577        -0.066923        -0.422894
 C         0.079714        -0.065212        -0.018789
 C        -1.123050        -0.230103         0.216480
 C        -2.563563        -0.404312         0.464803
 O        -3.177714         0.784684         0.995954
 C        -3.380964        -0.780181        -0.753434
 O        -4.333013        -1.878170        -0.476350
 C        -3.257763        -2.142732        -1.366608
 C        -3.516863        -2.311003        -2.857859
 H         1.666245         0.918450        -0.734193
 H         2.282250        -0.309148         0.267955
 H         1.641730        -0.801533        -1.280473
 H        -2.743722        -1.230937         1.182987
 H        -2.738995         1.037878         1.816250
 H        -3.792268         0.020750        -1.327958
 H        -2.620841        -2.840970        -1.005254
 H        -3.850341        -3.321786        -3.025046
 H        -4.065987        -1.604285        -3.455114
 H        -2.498412        -2.266427        -3.151835
