19
Iteration:  3516
 C         1.502961         0.410866        -0.203755
 C         0.087726         0.058244        -0.080925
 C        -1.035296        -0.329417         0.098481
 C        -2.397317        -0.570748         0.430579
 O        -2.944160         0.833861         0.840500
 C        -3.283715        -0.912250        -0.794004
 O        -4.591537        -1.495928        -0.628153
 C        -3.593451        -2.297228        -1.243237
 C        -3.580903        -2.898228        -2.670109
 H         2.056884        -0.626166        -0.538226
 H         1.888695         1.072899        -1.017849
 H         1.947820         0.720895         0.702795
 H        -2.469467        -1.235734         1.258169
 H        -2.245974         1.265574         1.366671
 H        -3.210012        -0.197128        -1.640472
 H        -3.121865        -2.940602        -0.386343
 H        -4.123083        -3.828634        -2.651879
 H        -4.166276        -2.121013        -3.302507
 H        -2.498386        -2.941826        -2.906708
