19
Iteration:  3934
 C         1.518059         0.010816        -0.419731
 C         0.038929        -0.101922        -0.219721
 C        -1.142884        -0.272489         0.080152
 C        -2.620996        -0.382729         0.584742
 O        -3.227549         0.735599         1.039252
 C        -3.298543        -0.750669        -0.738658
 O        -4.463600        -1.581901        -0.639344
 C        -3.293086        -2.157347        -1.200785
 C        -3.288092        -2.661468        -2.727039
 H         1.746481         0.537610        -1.447065
 H         2.035698         0.645732         0.348470
 H         1.835035        -1.010768        -0.469615
 H        -2.866822        -1.135516         1.443790
 H        -2.679974         1.507535         1.207879
 H        -3.459056         0.083732        -1.492708
 H        -2.674850        -2.797684        -0.464423
 H        -3.368289        -3.754835        -2.579633
 H        -4.145568        -2.202877        -3.157356
 H        -2.439462        -2.436926        -3.361018
