19
Iteration:  4382charge 0 multiplicity 1
 C         1.414095        -0.019688        -0.426319
 C        -0.019076        -0.042221        -0.265362
 C        -1.130311        -0.254807         0.138749
 C        -2.581372        -0.392215         0.452141
 O        -3.201142         0.663216         1.274034
 C        -3.258523        -0.817022        -0.806296
 O        -4.422649        -1.586435        -0.596589
 C        -3.307214        -2.156775        -1.316238
 C        -3.293449        -2.492666        -2.773054
 H         1.964783         0.803148        -0.050714
 H         1.848744        -0.926006         0.031052
 H         1.749812        -0.175350        -1.518695
 H        -2.775835        -1.182091         1.110572
 H        -2.494115         1.219378         1.631432
 H        -3.391719        -0.005931        -1.526209
 H        -2.947819        -2.921492        -0.753484
 H        -3.740305        -3.469130        -2.866821
 H        -3.925180        -1.692355        -3.143701
 H        -2.311024        -2.666433        -3.056294
