19
Iteration:  1222
 C         1.484356         0.047086        -0.190342
 C         0.111305        -0.085837         0.017945
 C        -1.112265        -0.131045         0.029637
 C        -2.617510        -0.119235         0.167692
 O        -3.183223         1.291749         0.345671
 C        -3.307935        -0.932910        -0.856586
 O        -4.497589        -1.681545        -0.480204
 C        -3.239191        -2.392810        -0.919965
 C        -3.315406        -3.165930        -2.216921
 H         1.526799         0.934125        -0.826970
 H         2.050008         0.258552         0.679356
 H         1.745883        -0.834516        -0.825723
 H        -2.807550        -0.499682         1.183444
 H        -3.991685         1.383519        -0.210096
 H        -3.286266        -0.430270        -1.829070
 H        -2.769602        -2.886920        -0.074419
 H        -3.780961        -4.182583        -2.168176
 H        -3.753948        -2.707957        -3.159478
 H        -2.185621        -3.305087        -2.270744
