19
Iteration:  3054charge 0 multiplicity 1
 C         1.498464        -0.011437        -0.278997
 C         0.060709         0.100670        -0.088599
 C        -1.144199        -0.133753        -0.083840
 C        -2.454194        -0.358622         0.410944
 O        -3.121874         0.986197         0.793656
 C        -3.404846        -0.921668        -0.813439
 O        -4.591612        -1.717341        -0.527428
 C        -3.279527        -2.373739        -1.086675
 C        -3.304233        -2.702118        -2.576086
 H         2.007228        -0.783503         0.252540
 H         1.693936        -0.321027        -1.326165
 H         1.967064         0.902029         0.008004
 H        -2.580250        -1.233324         1.153244
 H        -2.635705         1.389234         1.526614
 H        -3.581748        -0.231537        -1.592158
 H        -2.885913        -3.019694        -0.317377
 H        -3.719061        -3.718162        -2.952543
 H        -4.167681        -2.025544        -2.881933
 H        -2.460629        -2.339230        -3.201685
