19
Iteration:   126charge 0 multiplicity 1
 C         1.436819         0.286837        -0.062600
 C         0.060657         0.038927        -0.085285
 C        -1.151748         0.005506         0.118456
 C        -2.545213        -0.124231         0.207399
 O        -3.195314         1.246183         0.122913
 C        -3.056575        -1.097990        -0.936720
 O        -4.445955        -1.404108        -0.940133
 C        -3.495297        -2.483511        -0.731037
 C        -3.361973        -3.610501        -1.740332
 H         1.627976         1.268486         0.374771
 H         1.985230        -0.502432         0.449364
 H         1.762753         0.211499        -1.089322
 H        -2.797216        -0.473583         1.263664
 H        -2.914622         1.521827        -0.794735
 H        -2.582761        -0.585976        -1.840026
 H        -3.480279        -3.003138         0.364873
 H        -4.160123        -4.399963        -1.598774
 H        -3.493654        -3.313036        -2.813868
 H        -2.437510        -4.240838        -1.780337
