19
Iteration:  4831charge 0 multiplicity 1
 C         1.282809         0.322530        -0.472061
 C        -0.013874        -0.109234        -0.095227
 C        -1.041028        -0.571300         0.386083
 C        -2.464743        -0.627092         0.633613
 O        -2.958342         0.514247         1.225775
 C        -3.079431        -0.856708        -0.764967
 O        -4.575052        -1.268943        -0.823566
 C        -3.518975        -2.128940        -1.367622
 C        -3.401138        -2.530492        -2.813534
 H         2.151102        -0.208885        -0.202920
 H         1.216594         0.159366        -1.549278
 H         1.319648         1.429229        -0.256104
 H        -2.782393        -1.517803         1.281765
 H        -2.587419         1.273588         0.720003
 H        -2.717991        -0.056771        -1.445469
 H        -3.224917        -2.941791        -0.644564
 H        -3.825062        -3.500959        -3.099375
 H        -3.903796        -1.809451        -3.388402
 H        -2.382036        -2.635045        -3.179383
