19
Iteration:  3307
 C         1.391689         0.029481        -0.454158
 C        -0.017051        -0.081729        -0.085241
 C        -1.181645        -0.216054         0.052490
 C        -2.554896        -0.322699         0.389416
 O        -3.167388         0.905814         0.986343
 C        -3.293239        -0.794530        -0.819589
 O        -4.435214        -1.638206        -0.573051
 C        -3.249634        -2.286209        -1.206688
 C        -3.293903        -2.724633        -2.542634
 H         1.693039         0.967805        -1.138331
 H         1.923656         0.105817         0.473792
 H         1.570484        -0.898833        -0.848997
 H        -2.708308        -1.270500         1.118883
 H        -2.400220         1.265969         1.453317
 H        -3.350519         0.064211        -1.535827
 H        -2.670310        -2.864312        -0.426338
 H        -3.970713        -3.686677        -2.636344
 H        -3.869998        -2.097006        -3.308454
 H        -2.304066        -2.998603        -3.033583
