19
Iteration:  4916
 C         1.571812         0.185061        -0.306967
 C         0.218221         0.113163        -0.007826
 C        -0.917499        -0.204494         0.243607
 C        -2.432325        -0.559225         0.415484
 O        -3.126917         0.420868         1.280819
 C        -3.285994        -0.809364        -0.820935
 O        -4.549279        -1.538935        -0.715116
 C        -3.446907        -2.180688        -1.425861
 C        -3.710842        -2.502127        -2.859741
 H         2.057435         0.073309         0.626905
 H         1.889482        -0.527284        -1.039840
 H         1.978452         1.151205        -0.723413
 H        -2.480978        -1.528746         0.974382
 H        -2.830312         1.269171         0.924430
 H        -3.325977        -0.050227        -1.482565
 H        -3.243046        -3.107991        -0.904499
 H        -4.730647        -2.984686        -2.939846
 H        -3.651406        -1.674207        -3.585995
 H        -2.907144        -3.138280        -3.008736
