19
Iteration:  3343
 C         1.503176         0.090732        -0.497349
 C         0.101769        -0.143169        -0.165784
 C        -1.073180        -0.061458         0.244502
 C        -2.472125        -0.398250         0.413302
 O        -3.366364         0.756529         0.896811
 C        -3.215817        -0.873592        -0.791633
 O        -4.486660        -1.571275        -0.632226
 C        -3.357034        -2.249723        -1.135124
 C        -3.390671        -2.686687        -2.558652
 H         1.856070         0.590977        -1.378912
 H         2.043339         0.465835         0.401563
 H         2.058680        -0.972052        -0.538460
 H        -2.395422        -1.106767         1.333028
 H        -2.787280         1.478451         1.170428
 H        -3.382054        -0.036351        -1.539247
 H        -2.789792        -2.943326        -0.551241
 H        -3.976270        -3.576868        -2.422114
 H        -3.886078        -1.872829        -3.187502
 H        -2.365935        -3.016452        -2.902174
