19
Iteration:   644
 C         1.401197         0.046691        -0.279985
 C         0.019537        -0.052459         0.104784
 C        -1.163908         0.045729         0.247810
 C        -2.631160        -0.082857         0.228619
 O        -3.277963         1.152240         0.096577
 C        -3.144777        -0.963869        -1.015970
 O        -4.468909        -1.445574        -0.793863
 C        -3.348983        -2.495088        -0.761955
 C        -3.192060        -3.389232        -1.895832
 H         1.542919         1.110632        -0.541205
 H         2.129904        -0.042780         0.632853
 H         1.756233        -0.478488        -1.193921
 H        -3.037223        -0.651693         1.163416
 H        -2.717981         1.728071         0.583757
 H        -2.782774        -0.401473        -1.920185
 H        -3.168062        -2.855752         0.331097
 H        -3.842601        -4.263530        -2.056879
 H        -3.122045        -2.850146        -2.830770
 H        -2.205982        -3.781258        -1.839362
