19
Iteration:  2800
 C         1.458074         0.245895        -0.287321
 C         0.156000         0.109980         0.027697
 C        -1.030529        -0.100580         0.103854
 C        -2.441121        -0.399154         0.362408
 O        -3.089977         0.771574         0.875977
 C        -3.216230        -0.962725        -0.932804
 O        -4.623758        -1.435332        -0.773639
 C        -3.425801        -2.353900        -1.096417
 C        -3.509017        -3.027654        -2.419861
 H         1.611568         1.061228        -1.058214
 H         2.187284         0.580661         0.450933
 H         1.733708        -0.698792        -0.769494
 H        -2.661005        -1.163587         1.092476
 H        -2.620738         1.601524         0.697802
 H        -3.127616        -0.362267        -1.857731
 H        -3.014901        -3.021568        -0.346095
 H        -4.367978        -3.678371        -2.457860
 H        -3.753651        -2.169847        -3.101465
 H        -2.574295        -3.557062        -2.648281
