19
Iteration:  2335charge 0 multiplicity 1
 C         1.431761         0.031530        -0.485703
 C         0.095307         0.082458         0.036569
 C        -1.080287        -0.029041         0.191572
 C        -2.546617        -0.207363         0.345136
 O        -3.297398         0.997181         0.690508
 C        -3.102488        -0.929915        -0.908653
 O        -4.501525        -1.616613        -0.578356
 C        -3.364336        -2.384847        -1.000018
 C        -3.356510        -3.038324        -2.428086
 H         1.544293         0.174340        -1.558105
 H         2.051185         0.766772         0.010418
 H         1.861242        -0.928014        -0.221211
 H        -2.868631        -0.726311         1.323218
 H        -2.570675         1.657543         0.856006
 H        -3.199118        -0.439671        -1.903093
 H        -3.039743        -3.062808        -0.180597
 H        -3.762323        -4.048884        -2.622857
 H        -3.956145        -2.461516        -3.174863
 H        -2.313773        -3.193727        -2.602344
