19
Iteration:  4199charge 0 multiplicity 1
 C         1.527263         0.283438        -0.309161
 C         0.135611        -0.006402        -0.010903
 C        -1.012882        -0.357407         0.077793
 C        -2.470716        -0.548183         0.452732
 O        -3.149424         0.674069         1.046204
 C        -3.244746        -0.827662        -0.823199
 O        -4.504539        -1.460299        -0.623241
 C        -3.396262        -2.220707        -1.365312
 C        -3.615894        -2.694813        -2.741864
 H         2.000397        -0.419425         0.352863
 H         1.737718         0.211419        -1.365769
 H         1.776800         1.260513         0.013839
 H        -2.648475        -1.290701         1.209852
 H        -2.551079         0.983048         1.750461
 H        -2.946093        -0.001618        -1.450553
 H        -2.973338        -2.951345        -0.633545
 H        -4.477980        -3.346669        -2.794656
 H        -3.807401        -1.901062        -3.475811
 H        -2.824700        -3.395249        -3.004465
