19
Iteration:  1361charge 0 multiplicity 1
 C         1.515831         0.259799        -0.132003
 C         0.110086         0.159099        -0.206142
 C        -1.021571        -0.101316         0.059567
 C        -2.498900        -0.297798         0.291824
 O        -3.186536         1.013764         0.476461
 C        -3.189648        -1.000553        -0.926065
 O        -4.484597        -1.423319        -0.731597
 C        -3.485827        -2.428178        -0.947654
 C        -3.516914        -3.307677        -2.090359
 H         2.027423        -0.231089        -1.080249
 H         1.827999         1.340690        -0.254792
 H         2.033225        -0.288282         0.721198
 H        -2.792960        -0.940921         1.176702
 H        -2.490899         1.670454         0.505429
 H        -3.104689        -0.414756        -1.886874
 H        -3.152517        -2.973395         0.026391
 H        -4.121651        -4.150960        -1.755458
 H        -4.015405        -2.966225        -3.025184
 H        -2.541124        -3.766029        -2.225648
