19
Iteration:  1171
 C         1.466739        -0.071770        -0.239203
 C        -0.047698        -0.056737        -0.183314
 C        -1.235821        -0.093630         0.021344
 C        -2.706568        -0.106890         0.304999
 O        -3.243994         1.222500         0.327635
 C        -3.221937        -0.880757        -0.898504
 O        -4.460237        -1.625240        -0.556897
 C        -3.225030        -2.336928        -0.879630
 C        -3.098454        -3.206413        -2.140893
 H         1.906643         0.888576        -0.121232
 H         1.628478        -0.587070         0.813509
 H         1.727903        -0.601795        -1.151853
 H        -3.043795        -0.500194         1.281519
 H        -2.641823         1.755225         0.803465
 H        -3.231306        -0.322699        -1.883054
 H        -2.946988        -2.789167         0.070534
 H        -3.496593        -4.182637        -1.961966
 H        -3.805385        -2.782302        -2.823096
 H        -2.118921        -3.271662        -2.470012
