19
Iteration:  3065
 C         1.506907        -0.029293        -0.268250
 C         0.089703         0.059764        -0.156023
 C        -1.131976        -0.148299        -0.082549
 C        -2.593187        -0.287284         0.329130
 O        -3.178164         0.942062         0.818841
 C        -3.373945        -0.926760        -0.728244
 O        -4.477200        -1.734422        -0.520626
 C        -3.301817        -2.329557        -1.127324
 C        -3.363019        -2.641573        -2.559754
 H         1.773647        -0.706350         0.604171
 H         1.832179        -0.369132        -1.276061
 H         2.025194         0.907171        -0.137934
 H        -2.365398        -0.962693         1.247024
 H        -2.474687         1.287891         1.404239
 H        -3.356285        -0.308403        -1.586897
 H        -2.974617        -3.130942        -0.474064
 H        -3.495531        -3.809544        -2.637055
 H        -4.209668        -2.031197        -3.020015
 H        -2.377790        -2.449651        -3.053148
