19
Iteration:  4656charge 0 multiplicity 1
 C         1.434636        -0.022739        -0.383379
 C         0.052617        -0.148138        -0.109737
 C        -1.112895        -0.191916         0.298357
 C        -2.512298        -0.415308         0.425185
 O        -3.152699         0.646820         1.197334
 C        -3.346304        -0.763557        -0.793940
 O        -4.339135        -1.765965        -0.549104
 C        -3.225354        -2.105676        -1.347225
 C        -3.519396        -2.365744        -2.891642
 H         1.419168        -0.603974        -1.239604
 H         1.752900         0.960404        -0.637596
 H         2.213296        -0.557540         0.268737
 H        -2.666772        -1.306521         1.046335
 H        -3.044486         1.491830         0.702309
 H        -3.594439         0.039779        -1.450686
 H        -2.410093        -2.586480        -0.844893
 H        -3.880234        -3.410869        -3.026159
 H        -4.443578        -1.715964        -3.086861
 H        -2.829756        -2.151099        -3.722403
