19
Iteration:  3387charge 0 multiplicity 1
 C         1.409285         0.089084        -0.426435
 C         0.066054         0.133337        -0.035749
 C        -1.094300        -0.129298         0.215837
 C        -2.482912        -0.378008         0.431588
 O        -3.195784         0.779055         0.913491
 C        -3.121136        -0.921628        -0.841951
 O        -4.381670        -1.500238        -0.657870
 C        -3.388826        -2.395030        -1.165277
 C        -3.580465        -2.755704        -2.605837
 H         1.339385         0.070313        -1.481341
 H         2.017643         0.948041        -0.112697
 H         1.909643        -0.878962        -0.190671
 H        -2.734316        -1.294898         1.105181
 H        -2.526211         1.208532         1.457436
 H        -2.821945        -0.232323        -1.646127
 H        -3.256013        -3.229685        -0.534756
 H        -4.132610        -3.668729        -2.697627
 H        -3.865506        -1.911906        -3.314511
 H        -2.492213        -3.066654        -2.806945
