19
Iteration:   291charge 0 multiplicity 1
 C         1.473972         0.167947        -0.015977
 C         0.083920         0.018197        -0.134330
 C        -1.144326        -0.039272         0.041894
 C        -2.593247        -0.097332         0.151677
 O        -3.217120         1.271059        -0.038744
 C        -3.227300        -1.080321        -0.878239
 O        -4.513826        -1.504056        -0.682711
 C        -3.392307        -2.493284        -0.724555
 C        -3.235064        -3.447116        -1.924626
 H         2.120296        -0.065179        -0.869311
 H         1.683553         1.247159         0.184931
 H         1.755275        -0.426030         0.966437
 H        -2.779036        -0.515015         1.156770
 H        -3.099021         1.821863         0.718419
 H        -2.962670        -0.607769        -1.835018
 H        -3.098100        -3.060246         0.224168
 H        -3.875954        -4.333786        -1.661205
 H        -3.580038        -2.875951        -2.816537
 H        -2.172132        -3.674778        -2.026054
