19
Iteration:    22charge 0 multiplicity 1
 C         1.500506         0.147088        -0.017060
 C         0.043031         0.078605        -0.207609
 C        -1.171647         0.121817         0.156335
 C        -2.649932        -0.076816         0.257812
 O        -3.192705         1.381873         0.021835
 C        -3.128292        -1.104896        -0.899482
 O        -4.479643        -1.628678        -0.930493
 C        -3.312448        -2.524564        -0.671311
 C        -3.389493        -3.562117        -1.790764
 H         1.764900        -0.176720         1.040737
 H         2.088965        -0.465077        -0.769110
 H         1.842161         1.209047        -0.103825
 H        -2.905209        -0.232750         1.280240
 H        -2.422959         1.804880        -0.489744
 H        -2.752372        -0.742603        -1.838698
 H        -3.299667        -2.875697         0.320451
 H        -4.156493        -4.284670        -1.469597
 H        -3.761430        -3.030239        -2.660073
 H        -2.455009        -4.076089        -2.014994
