19
Iteration:  3472
 C         1.395876         0.376106        -0.268460
 C         0.121287        -0.133356        -0.110376
 C        -1.053522        -0.319129         0.059550
 C        -2.503736        -0.479219         0.368796
 O        -2.980080         0.751836         0.866350
 C        -3.141846        -0.821057        -0.909590
 O        -4.592891        -1.488626        -0.674956
 C        -3.483424        -2.314629        -1.053394
 C        -3.530047        -2.802495        -2.520797
 H         2.267006        -0.143620        -1.034008
 H         1.316632         1.457404        -0.578793
 H         1.838845         0.370192         0.720413
 H        -2.731809        -1.253390         1.064034
 H        -2.394698         1.105584         1.556574
 H        -3.177509        -0.011080        -1.694225
 H        -3.145519        -3.176594        -0.314776
 H        -4.316054        -3.538644        -2.805158
 H        -3.774432        -1.870257        -3.195267
 H        -2.478693        -3.121204        -2.844529
