19
Iteration:  3565charge 0 multiplicity 1
 C         1.580711         0.286882        -0.226548
 C         0.162780        -0.033671         0.014786
 C        -1.039070        -0.300574         0.044373
 C        -2.477811        -0.382216         0.323387
 O        -3.221087         0.708959         0.866414
 C        -3.199528        -0.910274        -0.883149
 O        -4.417192        -1.554503        -0.591553
 C        -3.328639        -2.266547        -1.210388
 C        -3.779026        -2.725360        -2.556013
 H         2.421933        -0.450245        -0.044754
 H         1.679476         0.581419        -1.287869
 H         1.863505         1.239262         0.466017
 H        -2.397526        -1.248276         1.052167
 H        -2.569609         1.442864         0.784907
 H        -3.229886        -0.240280        -1.779172
 H        -3.081129        -3.097016        -0.508293
 H        -4.487144        -3.599710        -2.420388
 H        -4.279219        -1.881822        -3.002224
 H        -2.848293        -3.132159        -3.004629
