19
Iteration:  3314charge 0 multiplicity 1
 C         1.420237         0.053760        -0.445606
 C         0.004407        -0.106819        -0.108550
 C        -1.210619        -0.209513         0.081963
 C        -2.565536        -0.319145         0.384188
 O        -3.207022         0.860004         0.981888
 C        -3.315571        -0.826252        -0.831313
 O        -4.373414        -1.576071        -0.583215
 C        -3.269780        -2.296909        -1.121687
 C        -3.325888        -2.722347        -2.612809
 H         1.684663         0.769374        -1.188459
 H         2.056326         0.215214         0.462662
 H         1.715475        -0.932796        -0.923161
 H        -2.576289        -1.056598         1.133481
 H        -2.466054         1.324429         1.426502
 H        -3.438532        -0.061181        -1.572084
 H        -2.629716        -2.928556        -0.489158
 H        -3.887008        -3.638579        -2.546816
 H        -3.799317        -2.016537        -3.220445
 H        -2.334877        -2.978385        -2.882381
