19
Iteration:  3684charge 0 multiplicity 1
 C         1.573922         0.201776        -0.359802
 C         0.079400        -0.169846        -0.196465
 C        -1.120934        -0.277383         0.098023
 C        -2.498465        -0.317497         0.433365
 O        -3.145404         0.762930         1.017474
 C        -3.341566        -0.796436        -0.902874
 O        -4.566238        -1.620439        -0.508641
 C        -3.363968        -2.223142        -1.190227
 C        -3.373248        -2.729380        -2.656812
 H         1.959298         0.219126         0.754604
 H         2.086696        -0.649859        -0.778774
 H         1.843523         1.145449        -0.728698
 H        -2.730085        -1.119486         1.079946
 H        -2.804805         1.615678         0.711635
 H        -3.344013        -0.055922        -1.736551
 H        -3.061085        -3.024837        -0.495874
 H        -3.791700        -3.795836        -2.701483
 H        -4.065207        -2.031919        -3.191112
 H        -2.281690        -2.734977        -3.020584
