19
Iteration:  2953charge 0 multiplicity 1
 C         1.440373         0.235068        -0.463888
 C         0.061144        -0.022488        -0.022606
 C        -1.086013        -0.316092         0.302071
 C        -2.592301        -0.412034         0.447654
 O        -3.147155         0.992150         0.852044
 C        -3.128517        -0.907935        -0.834833
 O        -4.463367        -1.519460        -0.688580
 C        -3.399562        -2.410242        -1.124235
 C        -3.439953        -2.866399        -2.572143
 H         1.827194        -0.603188        -1.091027
 H         1.505461         1.214417        -0.972536
 H         2.062937         0.467459         0.363353
 H        -2.857429        -1.167609         1.298101
 H        -2.332610         1.480329         0.602351
 H        -3.226892        -0.164628        -1.669310
 H        -3.060866        -3.067264        -0.357143
 H        -4.341399        -3.543248        -2.519639
 H        -3.608094        -2.089809        -3.438502
 H        -2.571228        -3.574432        -2.879585
