19
Iteration:  4554charge 0 multiplicity 1
 C         1.421667         0.018412        -0.270710
 C         0.027634        -0.143740        -0.060815
 C        -1.153394        -0.355121         0.027603
 C        -2.518571        -0.475910         0.551470
 O        -3.056653         0.879676         0.942658
 C        -3.432249        -0.859670        -0.555515
 O        -4.358224        -2.005936        -0.520066
 C        -3.187950        -2.020988        -1.417949
 C        -3.538712        -2.234369        -2.886096
 H         1.468714         0.542307        -1.252944
 H         2.049354         0.634462         0.400757
 H         1.924919        -0.967067        -0.331738
 H        -2.596239        -1.170961         1.355070
 H        -2.338547         1.504083         0.754075
 H        -3.898232         0.012465        -1.084971
 H        -2.526624        -2.894267        -1.024225
 H        -3.861803        -3.315855        -2.947499
 H        -4.429699        -1.492871        -3.081895
 H        -2.679223        -1.884992        -3.464265
