19
Iteration:  3564
 C         1.576928         0.295921        -0.219732
 C         0.164783        -0.035321         0.014293
 C        -1.027047        -0.303227         0.042324
 C        -2.475093        -0.388705         0.325400
 O        -3.222771         0.717081         0.870787
 C        -3.203615        -0.908102        -0.889717
 O        -4.423079        -1.549503        -0.595415
 C        -3.326992        -2.289090        -1.209903
 C        -3.781795        -2.718012        -2.552302
 H         2.424254        -0.501774        -0.072078
 H         1.671095         0.594781        -1.285780
 H         1.847234         1.223856         0.430110
 H        -2.407469        -1.226459         1.015861
 H        -2.554437         1.423532         0.793269
 H        -3.259738        -0.250082        -1.750988
 H        -3.068589        -3.066222        -0.494562
 H        -4.460022        -3.597083        -2.417873
 H        -4.266441        -1.896490        -3.015144
 H        -2.825955        -3.122213        -3.001831
