19
Iteration:   898charge 0 multiplicity 1
 C         1.536527         0.207900        -0.051115
 C         0.116496         0.167174         0.064827
 C        -1.062152        -0.069603         0.035682
 C        -2.541287        -0.148952         0.197938
 O        -3.107215         1.213060         0.197243
 C        -3.253381        -1.029264        -0.937522
 O        -4.520706        -1.574392        -0.697728
 C        -3.417259        -2.452086        -0.887022
 C        -3.397123        -3.395223        -2.086407
 H         1.758331        -0.836488        -0.000767
 H         1.886009         0.764304        -0.984115
 H         1.928788         0.682624         0.818352
 H        -2.681755        -0.532292         1.207713
 H        -3.962703         0.876557         0.665651
 H        -3.192235        -0.628787        -1.993871
 H        -3.130593        -2.876486         0.109960
 H        -4.271025        -4.088415        -1.846377
 H        -3.772749        -2.946347        -3.035941
 H        -2.397995        -3.859757        -2.267027
