19
Iteration:  2257charge 0 multiplicity 1
 C         1.528832         0.285436        -0.228974
 C         0.073795        -0.020720        -0.011459
 C        -1.155169        -0.218050        -0.018008
 C        -2.473516        -0.249467         0.234482
 O        -3.049515         1.028253         0.509150
 C        -3.317716        -0.899282        -0.854243
 O        -4.525919        -1.652541        -0.414359
 C        -3.406632        -2.390499        -1.021126
 C        -3.433238        -3.053756        -2.465386
 H         1.491617         1.215766        -0.680210
 H         2.108630         0.331953         0.707128
 H         2.047771        -0.465431        -0.884001
 H        -2.718343        -0.838726         1.239458
 H        -2.697429         1.338892         1.392262
 H        -3.649457        -0.333880        -1.766241
 H        -2.917438        -2.920907        -0.192466
 H        -4.223805        -3.833215        -2.291780
 H        -3.687703        -2.354292        -3.259919
 H        -2.451211        -3.481250        -2.685380
