19
Iteration:  2906
 C         1.534937         0.242512        -0.428605
 C         0.080061         0.050061        -0.037040
 C        -1.121388        -0.152611         0.161479
 C        -2.503170        -0.517205         0.465924
 O        -3.144373         0.806253         0.889360
 C        -3.131129        -0.958150        -0.863711
 O        -4.575304        -1.401286        -0.757045
 C        -3.500532        -2.384854        -1.085529
 C        -3.415222        -2.886928        -2.455577
 H         1.566428        -0.334684        -1.448079
 H         1.874818         1.264828        -0.489655
 H         2.220478        -0.142657         0.243608
 H        -2.665556        -1.065926         1.415931
 H        -3.065554         1.473349         0.176849
 H        -2.607293        -0.374984        -1.695747
 H        -3.373209        -2.893576        -0.171787
 H        -4.084760        -3.730387        -2.781702
 H        -3.452577        -2.025219        -3.128195
 H        -2.336235        -3.251284        -2.587675
