19
Iteration:  3478
 C         1.451142         0.415099        -0.266456
 C         0.094286        -0.098134        -0.123170
 C        -1.074495        -0.366226         0.059213
 C        -2.456939        -0.522239         0.369222
 O        -2.980640         0.802182         0.865705
 C        -3.205364        -0.855179        -0.902559
 O        -4.587556        -1.503842        -0.700545
 C        -3.492425        -2.296110        -1.066624
 C        -3.539921        -2.774728        -2.481789
 H         1.965377        -0.241981        -0.764491
 H         1.408163         1.408586        -0.643194
 H         1.915764         0.310758         0.791137
 H        -2.551318        -1.414553         1.106763
 H        -2.311244         1.041095         1.555033
 H        -3.028388        -0.147456        -1.713624
 H        -3.132865        -3.028999        -0.394463
 H        -4.193280        -3.570499        -2.875043
 H        -3.775422        -1.979842        -3.093120
 H        -2.631540        -3.071793        -2.941765
