19
Iteration:   193
 C         1.515660         0.281112        -0.149626
 C         0.114108         0.008558         0.186926
 C        -1.078141         0.060956         0.074126
 C        -2.567714        -0.191294         0.167367
 O        -3.262191         1.116541         0.053199
 C        -3.156500        -1.052681        -1.031121
 O        -4.480124        -1.401372        -0.888574
 C        -3.552994        -2.435090        -0.709061
 C        -3.313739        -3.573898        -1.762566
 H         1.656897         1.220408        -0.681539
 H         2.193271         0.490687         0.681284
 H         1.868390        -0.473590        -0.770684
 H        -2.823069        -0.616633         1.218501
 H        -2.568562         1.693587        -0.236263
 H        -3.043737        -0.673876        -2.088105
 H        -3.349545        -2.726212         0.464044
 H        -4.131306        -4.347162        -1.733057
 H        -3.185307        -3.004582        -2.701212
 H        -2.385227        -4.049943        -1.402647
