19
Iteration:  1622
 C         1.474954         0.126183        -0.283163
 C         0.033189         0.043599        -0.339648
 C        -1.159774        -0.081444         0.107695
 C        -2.609332        -0.206708         0.378939
 O        -3.086953         1.074726         0.658920
 C        -3.252003        -0.872454        -0.876884
 O        -4.541583        -1.592103        -0.775021
 C        -3.339078        -2.341693        -0.946292
 C        -3.351273        -3.275853        -2.203133
 H         1.730836         0.782554         0.516903
 H         1.651538        -0.965422        -0.022324
 H         1.873762         0.537424        -1.202362
 H        -2.620312        -0.775596         1.347394
 H        -2.261587         1.595495         0.925102
 H        -3.108979        -0.097876        -1.695990
 H        -2.826648        -2.867970        -0.046432
 H        -3.900121        -4.228803        -1.972059
 H        -3.833238        -2.572214        -2.961086
 H        -2.325290        -3.706551        -2.372511
