19
Iteration:  1710charge 0 multiplicity 1
 C         1.485209        -0.001020        -0.381613
 C         0.067328        -0.050287        -0.122347
 C        -1.139559        -0.114986         0.270970
 C        -2.681161        -0.136974         0.438092
 O        -3.229023         1.208800         0.258412
 C        -3.230889        -1.005247        -0.718627
 O        -4.418578        -1.776989        -0.484184
 C        -3.191365        -2.400353        -1.006471
 C        -3.416413        -2.918242        -2.357255
 H         1.806955         0.999090        -0.638651
 H         2.189865        -0.210635         0.477447
 H         2.010802        -0.572972        -1.136568
 H        -2.958379        -0.615339         1.361602
 H        -2.850473         1.824177         0.951194
 H        -3.360924        -0.324532        -1.578068
 H        -2.797491        -3.048236        -0.240693
 H        -3.878000        -3.937373        -2.371351
 H        -4.076823        -2.219383        -2.938430
 H        -2.552446        -3.163908        -3.027889
