19
Iteration:    51
 C         1.462804         0.204814        -0.067086
 C         0.041873         0.175217        -0.044564
 C        -1.189436        -0.029608         0.059343
 C        -2.624202        -0.160883         0.164082
 O        -3.234875         1.349241         0.046421
 C        -3.056238        -1.111444        -0.930574
 O        -4.429089        -1.429170        -0.808822
 C        -3.433350        -2.497512        -0.726807
 C        -3.361649        -3.634031        -1.801349
 H         1.804240         0.075149         1.001658
 H         1.947890        -0.814201        -0.378686
 H         1.832025         1.013794        -0.690349
 H        -2.916861        -0.412942         1.245401
 H        -2.447558         1.797792        -0.289250
 H        -2.611080        -0.813573        -1.901504
 H        -3.301845        -2.810954         0.379859
 H        -4.058865        -4.515534        -1.677620
 H        -3.462103        -3.346210        -2.863931
 H        -2.357331        -4.112479        -1.767912
