19
Iteration:  4067charge 0 multiplicity 1
 C         1.589300         0.287957        -0.156252
 C         0.088073        -0.060489        -0.005541
 C        -1.101189        -0.388932         0.007496
 C        -2.483147        -0.411751         0.448945
 O        -3.063025         0.828240         0.860768
 C        -3.348578        -0.891758        -0.752990
 O        -4.379004        -1.690371        -0.582359
 C        -3.276956        -2.298206        -1.323469
 C        -3.784195        -2.571354        -2.763026
 H         2.152725        -0.454795        -0.857204
 H         2.013058         1.283852        -0.467232
 H         2.064613         0.122462         0.843793
 H        -2.606732        -1.149059         1.242018
 H        -2.729779         1.304938         1.633200
 H        -3.456705         0.039230        -1.447529
 H        -2.981625        -3.266140        -0.762707
 H        -4.496674        -3.364563        -2.657453
 H        -4.217126        -1.691442        -3.330342
 H        -2.971304        -2.914117        -3.385998
