19
Iteration:  2972charge 0 multiplicity 1
 C         1.320059         0.247167        -0.400847
 C        -0.008677        -0.197189        -0.062524
 C        -1.161634        -0.242396         0.257365
 C        -2.563476        -0.341905         0.470958
 O        -3.070874         0.909700         0.786158
 C        -3.151077        -0.850320        -0.817493
 O        -4.424312        -1.570041        -0.702246
 C        -3.207886        -2.315218        -1.139796
 C        -3.531085        -2.859998        -2.492012
 H         1.907784        -0.676662        -0.846724
 H         1.313774         1.086830        -1.072217
 H         1.915596         0.672567         0.375591
 H        -2.811334        -1.109167         1.168170
 H        -2.373215         1.580401         0.842620
 H        -3.055771        -0.378271        -1.829040
 H        -2.779703        -3.030392        -0.456882
 H        -4.395109        -3.484651        -2.615158
 H        -3.626103        -1.930692        -3.028945
 H        -2.635607        -3.337672        -2.935146
