19
Iteration:  3793charge 0 multiplicity 1
 C         1.311068         0.050223        -0.666704
 C         0.008266        -0.287759        -0.091270
 C        -1.167395        -0.233281         0.296926
 C        -2.591045        -0.385164         0.649072
 O        -3.238152         0.846238         0.946853
 C        -3.128006        -0.843333        -0.695125
 O        -4.472453        -1.601889        -0.707630
 C        -3.254896        -2.229026        -1.083816
 C        -3.243267        -2.550905        -2.702156
 H         1.801845         1.058252        -0.348043
 H         2.120409        -0.639569        -0.368935
 H         1.314776        -0.088419        -1.688653
 H        -2.838583        -1.121459         1.422028
 H        -2.872870         1.627172         0.502029
 H        -3.239200         0.050629        -1.385925
 H        -2.699459        -2.962570        -0.395192
 H        -3.958987        -3.354108        -3.036886
 H        -3.317642        -1.608429        -3.276064
 H        -2.272534        -3.016925        -2.991820
