19
Iteration:  2793
 C         1.528289         0.293144        -0.329478
 C         0.120968         0.074755         0.012077
 C        -1.063132        -0.113233         0.119468
 C        -2.479432        -0.393906         0.363557
 O        -3.095103         0.772666         0.833895
 C        -3.250047        -0.967879        -0.853058
 O        -4.611682        -1.413740        -0.746494
 C        -3.386553        -2.374664        -1.125980
 C        -3.521863        -3.025733        -2.443228
 H         1.729650         1.080848        -0.963776
 H         2.041954         0.409304         0.698014
 H         1.967780        -0.704252        -0.795268
 H        -2.578852        -1.036510         1.271075
 H        -2.603915         1.598417         0.663324
 H        -2.995549        -0.404512        -1.726283
 H        -3.157490        -3.087377        -0.220498
 H        -4.362243        -3.693684        -2.567642
 H        -3.612472        -2.248164        -3.189660
 H        -2.612672        -3.451318        -2.760943
