19
Iteration:   426charge 0 multiplicity 1
 C         1.472101        -0.109966        -0.137596
 C         0.015753         0.032574         0.231537
 C        -1.250483        -0.053429         0.008438
 C        -2.729603        -0.033716         0.059892
 O        -3.272381         1.280282        -0.011008
 C        -3.362364        -0.924752        -0.947269
 O        -4.486067        -1.652107        -0.353041
 C        -3.172313        -2.436612        -0.816193
 C        -3.045943        -3.194868        -2.034826
 H         2.153840        -0.875837         0.249282
 H         1.504576        -0.285730        -1.295727
 H         1.883622         0.782558         0.265603
 H        -3.104455        -0.398006         1.032519
 H        -2.706571         1.698505        -0.728896
 H        -3.479587        -0.556448        -2.005542
 H        -2.661008        -3.001163         0.034040
 H        -3.502299        -4.260253        -2.142667
 H        -3.326531        -2.867244        -3.056468
 H        -1.874109        -3.506388        -2.173191
