19
Iteration:  4664charge 0 multiplicity 1
 C         1.433271        -0.064876        -0.423170
 C         0.008533        -0.091539        -0.035005
 C        -1.137005        -0.149642         0.277626
 C        -2.492429        -0.424994         0.455847
 O        -3.136893         0.620701         1.214616
 C        -3.309154        -0.764378        -0.803033
 O        -4.350037        -1.711203        -0.505722
 C        -3.236718        -2.138589        -1.432573
 C        -3.530373        -2.373954        -2.882269
 H         1.564126        -0.688404        -1.344361
 H         1.620076         0.948668        -0.743206
 H         2.169931        -0.482408         0.319203
 H        -2.630076        -1.261942         1.030917
 H        -3.006362         1.442152         0.693225
 H        -3.577122         0.030169        -1.431162
 H        -2.464621        -2.759144        -0.914554
 H        -3.794561        -3.426319        -3.145178
 H        -4.377272        -1.909655        -3.468161
 H        -2.650309        -2.249040        -3.471511
