19
Iteration:  1848charge 0 multiplicity 1
 C         1.446165        -0.199198        -0.257379
 C        -0.007390         0.025020        -0.328287
 C        -1.203367        -0.072816         0.034868
 C        -2.601028        -0.125608         0.321478
 O        -3.276158         1.190193         0.552157
 C        -3.317644        -0.925405        -0.701211
 O        -4.384602        -1.786647        -0.468608
 C        -3.157371        -2.325579        -0.971136
 C        -3.251204        -2.936443        -2.356032
 H         1.956827        -0.528736        -1.156284
 H         1.991379         0.743087        -0.177912
 H         1.472835        -0.827274         0.631088
 H        -2.755465        -0.586612         1.313807
 H        -3.162035         1.704358        -0.253895
 H        -3.571098        -0.406449        -1.682228
 H        -2.623066        -2.777744        -0.031824
 H        -3.397764        -3.982638        -2.512297
 H        -4.041548        -2.236726        -2.738180
 H        -2.306969        -2.721054        -2.910200
