19
Iteration:   882charge 0 multiplicity 1
 C         1.574203         0.242194        -0.013899
 C         0.081400         0.085482         0.105193
 C        -1.124337         0.008411        -0.018804
 C        -2.554929        -0.221766         0.119676
 O        -3.168808         1.072735         0.114362
 C        -3.139375        -0.966758        -0.957987
 O        -4.482201        -1.489945        -0.587352
 C        -3.422554        -2.480129        -0.874884
 C        -3.484990        -3.362694        -2.075868
 H         2.161001        -0.747770        -0.167776
 H         1.651771         0.949294        -0.882731
 H         2.100920         0.617719         0.937144
 H        -2.836968        -0.819940         1.096759
 H        -3.672789         1.389524         0.874762
 H        -3.139630        -0.482154        -1.916206
 H        -2.970495        -2.930508         0.043918
 H        -4.145061        -4.311601        -1.989305
 H        -3.547406        -2.755987        -2.989801
 H        -2.446321        -3.762149        -2.138641
