19
Iteration:  3967
 C         1.428352         0.101502        -0.379148
 C         0.051311        -0.059886        -0.100397
 C        -1.128601        -0.193721         0.272825
 C        -2.612400        -0.384537         0.467592
 O        -3.029991         0.822471         0.938115
 C        -3.270632        -0.885832        -0.853752
 O        -4.473038        -1.716012        -0.593475
 C        -3.391871        -2.306840        -1.204506
 C        -3.403389        -2.509267        -2.745339
 H         1.607625         0.162108        -1.471397
 H         1.993865         0.852278         0.205876
 H         1.977168        -0.779809        -0.150115
 H        -2.803828        -1.215072         1.229029
 H        -2.283797         1.265390         1.358476
 H        -3.454206        -0.068701        -1.623936
 H        -2.831566        -3.020201        -0.508305
 H        -3.827261        -3.518728        -2.904142
 H        -4.116247        -1.891983        -3.275010
 H        -2.397440        -2.519697        -3.126385
