19
Iteration:  1379
 C         1.515263         0.279295        -0.186852
 C        -0.009225         0.211173        -0.236775
 C        -1.128598        -0.097914         0.069706
 C        -2.514540        -0.336747         0.303889
 O        -3.043432         0.967967         0.459956
 C        -3.089662        -0.951305        -0.930492
 O        -4.539430        -1.397255        -0.771085
 C        -3.468567        -2.374019        -0.890373
 C        -3.526156        -3.414230        -2.103094
 H         1.993001        -0.436316        -0.726862
 H         1.951057         1.288059        -0.301829
 H         1.706059        -0.046133         0.789492
 H        -2.634445        -0.857937         1.242369
 H        -2.564444         1.322267         1.220193
 H        -2.643273        -0.391423        -1.765068
 H        -3.298598        -2.758541         0.086513
 H        -4.230010        -4.231309        -1.943003
 H        -3.887906        -2.897619        -2.953156
 H        -2.519981        -3.790080        -2.282386
