19
Iteration:   657
 C         1.444308         0.139629        -0.281489
 C         0.049545        -0.008137         0.188476
 C        -1.153400         0.048755         0.260890
 C        -2.601129        -0.161942         0.119198
 O        -3.251186         1.224093         0.148667
 C        -3.151789        -1.021305        -0.930486
 O        -4.506859        -1.485861        -0.803152
 C        -3.443137        -2.391872        -0.801614
 C        -3.144737        -3.453454        -1.962860
 H         1.697328         1.083189        -0.849859
 H         2.203136        -0.207586         0.551304
 H         1.527162        -0.740147        -0.918876
 H        -2.908829        -0.686776         1.116538
 H        -2.599334         1.887830         0.561893
 H        -3.111424        -0.900386        -2.058347
 H        -3.287868        -2.860181         0.202147
 H        -3.925268        -4.160696        -1.852982
 H        -3.375901        -2.994580        -2.909831
 H        -2.201986        -3.917653        -1.771270
