19
Iteration:  4636charge 0 multiplicity 1
 C         1.565606        -0.013516        -0.417226
 C         0.053411        -0.182213        -0.118244
 C        -1.139879        -0.305420         0.171839
 C        -2.575829        -0.388253         0.527326
 O        -3.208152         0.731521         1.166898
 C        -3.377789        -0.798209        -0.758356
 O        -4.335153        -1.849359        -0.607111
 C        -3.115897        -2.083861        -1.412827
 C        -3.605197        -2.269797        -2.734738
 H         2.050045        -0.340986        -1.338660
 H         1.656054         1.057033        -0.208991
 H         2.147145        -0.573024         0.370547
 H        -2.867540        -1.311293         1.230492
 H        -2.907930         1.511620         0.667831
 H        -3.737020         0.090396        -1.376342
 H        -2.389533        -2.735364        -0.967640
 H        -3.834048        -3.295830        -3.011365
 H        -4.407735        -1.813803        -3.170947
 H        -2.774655        -2.114007        -3.498688
