19
Iteration:    77
 C         1.495560         0.238253        -0.130930
 C         0.117921         0.119970         0.125487
 C        -1.098488        -0.023573         0.139258
 C        -2.534978        -0.160873         0.047399
 O        -3.249556         1.033147         0.010121
 C        -3.187377        -0.994349        -1.029908
 O        -4.527673        -1.467391        -0.852113
 C        -3.468082        -2.359782        -0.647862
 C        -3.332583        -3.484572        -1.705869
 H         1.943914         0.542506         0.848990
 H         1.988661        -0.772407        -0.171599
 H         1.743954         0.860190        -1.030548
 H        -2.767327        -0.569454         1.013509
 H        -2.725317         1.734625        -0.405104
 H        -2.846969        -0.705716        -2.001865
 H        -3.246875        -2.570564         0.330836
 H        -4.044477        -4.299028        -1.709240
 H        -3.251460        -3.174057        -2.744267
 H        -2.380988        -3.990730        -1.531908
