19
Iteration:    91charge 0 multiplicity 1
 C         1.577280         0.284395        -0.107801
 C         0.180443         0.019694         0.170860
 C        -1.052739        -0.075770         0.111375
 C        -2.494335        -0.239577         0.090437
 O        -3.383472         1.157587         0.035503
 C        -3.126986        -1.014865        -1.073327
 O        -4.597685        -1.469490        -0.888404
 C        -3.464966        -2.405661        -0.691380
 C        -3.309564        -3.452641        -1.652513
 H         2.096453         1.004916         0.458873
 H         2.111590        -0.593045        -0.151043
 H         1.568453         0.715232        -1.167116
 H        -2.844464        -0.694491         0.998613
 H        -2.818605         1.766438        -0.531715
 H        -3.016252        -0.794390        -2.169802
 H        -3.318598        -2.729903         0.391988
 H        -4.193880        -4.060992        -1.579454
 H        -3.351328        -2.885857        -2.592482
 H        -2.362531        -3.998937        -1.482601
