19
Iteration:  1056
 C         1.337801        -0.196020        -0.385679
 C        -0.042063        -0.042159        -0.130062
 C        -1.202804         0.026177         0.291848
 C        -2.685791        -0.037088         0.329421
 O        -3.388578         1.173961         0.349970
 C        -3.138451        -0.917639        -0.858627
 O        -4.420897        -1.566077        -0.808177
 C        -3.216195        -2.376861        -0.802319
 C        -3.063395        -3.178600        -2.043621
 H         2.076463        -0.014753         0.527486
 H         1.794635        -1.118263        -0.770594
 H         1.691304         0.589069        -1.180700
 H        -2.689640        -0.510320         1.341164
 H        -2.740086         1.814038         0.003957
 H        -2.893929        -0.501120        -1.828910
 H        -2.947001        -2.700883         0.228582
 H        -3.859354        -4.003314        -1.958945
 H        -3.401295        -2.709951        -3.007387
 H        -2.071889        -3.775480        -2.121722
