19
Iteration:  2106charge 0 multiplicity 1
 C         1.581810         0.250352        -0.293186
 C         0.103338         0.095143        -0.015224
 C        -1.082392        -0.067939         0.136871
 C        -2.465707        -0.331966         0.243778
 O        -3.147027         0.930499         0.614973
 C        -3.234079        -0.920581        -0.889993
 O        -4.470801        -1.487898        -0.587864
 C        -3.457055        -2.389948        -0.993565
 C        -3.519418        -3.183024        -2.348190
 H         2.163073         0.404993         0.667998
 H         1.874062        -0.737832        -0.682870
 H         1.721929         1.101967        -1.012676
 H        -2.547059        -0.725013         1.282142
 H        -3.601747         1.251442        -0.224874
 H        -3.241533        -0.191162        -1.749490
 H        -3.108625        -3.216289        -0.325536
 H        -4.341562        -3.931999        -2.203829
 H        -3.652289        -2.573557        -3.232267
 H        -2.603151        -3.766029        -2.310674
