19
Iteration:  4659charge 0 multiplicity 1
 C         1.442214        -0.038145        -0.381553
 C         0.018437        -0.127302        -0.084367
 C        -1.123105        -0.174604         0.294308
 C        -2.483321        -0.408371         0.423571
 O        -3.146230         0.637556         1.204896
 C        -3.331386        -0.771347        -0.788188
 O        -4.343995        -1.743543        -0.530279
 C        -3.232578        -2.126346        -1.377291
 C        -3.524291        -2.362955        -2.880827
 H         1.441201        -0.700027        -1.308652
 H         1.673485         1.016045        -0.708949
 H         2.188335        -0.542451         0.211806
 H        -2.698852        -1.399367         1.088252
 H        -3.032484         1.460487         0.697362
 H        -3.590904         0.103158        -1.510698
 H        -2.398436        -2.581961        -0.829709
 H        -3.873309        -3.375748        -3.126637
 H        -4.399945        -1.870384        -3.285942
 H        -2.758603        -2.206792        -3.732252
