19
Iteration:  2903
 C         1.507216         0.248294        -0.432965
 C         0.075717         0.032681        -0.055149
 C        -1.120923        -0.170673         0.147488
 C        -2.508021        -0.464326         0.476694
 O        -3.147096         0.782994         0.897877
 C        -3.115132        -0.956177        -0.883929
 O        -4.550677        -1.387653        -0.770010
 C        -3.509141        -2.400790        -1.063042
 C        -3.415102        -2.874954        -2.460609
 H         1.559193        -0.278860        -1.350172
 H         1.917674         1.273274        -0.394569
 H         2.305667        -0.199766         0.314608
 H        -2.583802        -1.004774         1.361693
 H        -3.131493         1.473096         0.218311
 H        -2.705772        -0.406706        -1.729826
 H        -3.323988        -3.024325        -0.103135
 H        -4.032009        -3.710821        -2.709348
 H        -3.489359        -2.076797        -3.116441
 H        -2.442380        -3.225035        -2.547921
