19
Iteration:  4154
 C         1.623599         0.185685        -0.110488
 C         0.106623         0.021054        -0.147084
 C        -1.088557        -0.107609         0.025732
 C        -2.402701        -0.523594         0.386632
 O        -3.077060         0.571210         1.041159
 C        -3.266325        -0.862724        -0.910268
 O        -4.590846        -1.494674        -0.676231
 C        -3.334020        -2.248235        -1.253835
 C        -3.695035        -2.675952        -2.668868
 H         2.064584        -0.734793         0.198397
 H         1.869369         0.723554        -1.065102
 H         1.875063         0.947481         0.674736
 H        -2.348252        -1.470086         0.898566
 H        -2.411664         1.147878         1.440567
 H        -3.462894        -0.022601        -1.631269
 H        -2.790325        -2.839131        -0.460106
 H        -4.118175        -3.681888        -2.681736
 H        -4.553326        -1.960694        -2.930915
 H        -2.869961        -2.693359        -3.417014
