19
Iteration:  1366
 C         1.520983         0.249696        -0.157241
 C         0.097309         0.186953        -0.221450
 C        -1.068275        -0.099768         0.065836
 C        -2.499144        -0.331005         0.322556
 O        -3.158368         1.020004         0.463019
 C        -3.147556        -0.983524        -0.910855
 O        -4.501817        -1.408860        -0.745476
 C        -3.471129        -2.417464        -0.950307
 C        -3.524384        -3.318455        -2.077762
 H         2.024434        -0.191129        -0.960430
 H         1.848942         1.262057        -0.227666
 H         1.864430        -0.166657         0.791152
 H        -2.732375        -1.114303         1.068406
 H        -2.433845         1.655995         0.684057
 H        -3.177758        -0.542582        -1.882323
 H        -3.260906        -3.020100        -0.127345
 H        -4.122799        -4.192054        -1.671343
 H        -3.932938        -2.980945        -3.031144
 H        -2.518950        -3.795754        -2.265685
