19
Iteration:  2937charge 0 multiplicity 1
 C         1.454827         0.259425        -0.449353
 C         0.081663         0.071770        -0.000416
 C        -1.034903        -0.303661         0.316381
 C        -2.447832        -0.350025         0.502708
 O        -3.120920         0.863756         0.821053
 C        -3.230011        -0.940186        -0.833339
 O        -4.560819        -1.519038        -0.703254
 C        -3.463348        -2.323820        -1.176295
 C        -3.439504        -2.942526        -2.562173
 H         1.656266        -0.540029        -1.225274
 H         1.556437         1.120325        -1.112290
 H         2.164821        -0.040265         0.407052
 H        -2.728807        -0.863268         1.359520
 H        -2.714940         1.696106         0.531004
 H        -2.880673        -0.246849        -1.593117
 H        -3.250195        -3.039597        -0.305562
 H        -4.191599        -3.613200        -2.949349
 H        -3.389902        -2.171787        -3.251523
 H        -2.477010        -3.356875        -2.579928
