19
Iteration:  1130charge 0 multiplicity 1
 C         1.445894        -0.227829        -0.353818
 C         0.011919         0.005335        -0.063291
 C        -1.221057         0.097564         0.120616
 C        -2.727155        -0.050440         0.310698
 O        -3.200010         1.265478         0.425988
 C        -3.261918        -0.821917        -0.866724
 O        -4.516846        -1.704620        -0.703793
 C        -3.223045        -2.370980        -0.817261
 C        -3.069382        -3.194355        -2.095288
 H         1.976645         0.621822         0.125900
 H         1.897705        -1.024196         0.107534
 H         1.837453        -0.290499        -1.363033
 H        -2.956518        -0.839445         1.028581
 H        -3.826419         1.288605        -0.413475
 H        -3.007567        -0.561393        -1.911736
 H        -2.919342        -2.909753         0.134300
 H        -3.596155        -4.187915        -2.044599
 H        -3.556340        -2.840958        -3.015792
 H        -1.957131        -3.342219        -2.299926
