19
Iteration:  4975
 C         1.548746         0.173387        -0.069553
 C         0.160942        -0.113580        -0.065121
 C        -1.064989        -0.061025        -0.105493
 C        -2.456545        -0.505319         0.323370
 O        -3.035438         0.381651         1.242312
 C        -3.273338        -0.801580        -0.907588
 O        -4.440648        -1.588292        -0.550312
 C        -3.353316        -2.164068        -1.398263
 C        -3.836948        -2.445201        -2.797841
 H         1.663111         0.613956         0.960949
 H         2.276056        -0.650942        -0.058499
 H         1.667078         1.019605        -0.729826
 H        -2.279741        -1.535269         0.935525
 H        -2.613105         1.242080         1.082767
 H        -3.571413         0.049569        -1.621531
 H        -2.713486        -2.984261        -0.867760
 H        -4.389933        -3.301583        -3.086051
 H        -4.265791        -1.515261        -3.158491
 H        -2.953179        -2.529734        -3.543682
