19
Iteration:   978charge 0 multiplicity 1
 C         1.457947         0.092504        -0.284458
 C         0.058411        -0.142763        -0.052326
 C        -1.145644        -0.152729         0.195346
 C        -2.619604        -0.169056         0.244266
 O        -3.356761         1.161128         0.212624
 C        -3.196644        -0.913824        -0.932823
 O        -4.528615        -1.496641        -0.780102
 C        -3.270337        -2.316965        -0.797225
 C        -3.148313        -3.244262        -1.968869
 H         2.125840        -0.571203         0.414707
 H         1.644563        -0.279099        -1.261425
 H         1.752304         1.168242        -0.152438
 H        -2.844621        -0.656649         1.168627
 H        -2.972981         1.521920         1.104054
 H        -3.083472        -0.393968        -1.886334
 H        -3.287473        -2.748600         0.199214
 H        -3.596483        -4.205188        -1.890038
 H        -3.269289        -2.633461        -2.858227
 H        -2.052634        -3.543076        -1.905860
