19
Iteration:  4733charge 0 multiplicity 1
 C         1.403823         0.026886        -0.494380
 C        -0.022892        -0.080801        -0.234991
 C        -1.150753        -0.257509         0.193757
 C        -2.523066        -0.515314         0.561943
 O        -3.201403         0.494762         1.298751
 C        -3.147960        -0.801522        -0.805284
 O        -4.457605        -1.456514        -0.683403
 C        -3.344615        -2.150866        -1.318623
 C        -3.361712        -2.408939        -2.759104
 H         1.909858        -0.835661        -0.835107
 H         1.426136         0.778075        -1.274210
 H         1.987440         0.442383         0.391221
 H        -2.594045        -1.366300         1.117517
 H        -2.603506         1.251467         1.432757
 H        -3.115688         0.060032        -1.489745
 H        -3.057341        -2.939597        -0.628380
 H        -4.035835        -3.113756        -3.238817
 H        -3.337628        -1.618024        -3.466320
 H        -2.384736        -2.912244        -2.830734
