19
Iteration:   809
 C         1.498047         0.314550         0.136116
 C         0.076359         0.282077        -0.003894
 C        -1.080187        -0.029264         0.054170
 C        -2.521251        -0.160670         0.153410
 O        -3.028951         1.112817         0.201722
 C        -3.122205        -1.007211        -0.990619
 O        -4.448860        -1.565225        -0.641079
 C        -3.531071        -2.606866        -0.878563
 C        -3.634000        -3.461233        -2.110881
 H         1.907931        -0.245384        -0.663882
 H         1.910716         1.379906        -0.007810
 H         2.029644        -0.213642         0.861844
 H        -2.613428        -0.485251         1.129247
 H        -2.948141         1.673807        -0.653745
 H        -3.047288        -0.571073        -2.009944
 H        -2.984010        -3.072607         0.000393
 H        -4.380367        -4.261832        -1.872228
 H        -3.899684        -2.892189        -2.998277
 H        -2.665327        -3.924048        -2.360669
