19
Iteration:  3651charge 0 multiplicity 1
 C         1.521893         0.145283        -0.262283
 C         0.080040         0.009821        -0.031081
 C        -1.102707        -0.080005        -0.037131
 C        -2.459287        -0.399446         0.405475
 O        -3.082018         0.725662         0.965635
 C        -3.242675        -0.868717        -0.845084
 O        -4.537831        -1.635377        -0.554492
 C        -3.352502        -2.286484        -1.178386
 C        -3.549528        -2.698627        -2.618392
 H         1.987863        -0.329929         0.695806
 H         1.863292        -0.539149        -1.037469
 H         1.829120         1.088595        -0.621609
 H        -2.412496        -1.135639         1.164589
 H        -3.014982         1.437074         0.314125
 H        -3.408348        -0.179854        -1.684539
 H        -2.938085        -3.027969        -0.487268
 H        -4.257500        -3.574814        -2.798067
 H        -3.913865        -1.929528        -3.298727
 H        -2.667286        -3.006280        -3.280516
