19
Iteration:  1416charge 0 multiplicity 1
 C         1.560934         0.400315        -0.282282
 C         0.208480         0.038702        -0.050887
 C        -1.024833        -0.217462         0.031592
 C        -2.577626        -0.269962         0.270720
 O        -3.126053         0.999726         0.514249
 C        -3.126061        -0.998227        -0.940575
 O        -4.565174        -1.386679        -0.865296
 C        -3.589405        -2.388669        -0.819277
 C        -3.466778        -3.317618        -2.051471
 H         2.121816        -0.492896        -0.748151
 H         1.759902         1.122493        -1.103703
 H         2.092676         0.757705         0.657948
 H        -2.948057        -0.869294         1.120271
 H        -3.489848         0.890964         1.459023
 H        -2.836124        -0.666651        -1.955301
 H        -3.120791        -2.774038         0.169303
 H        -4.321668        -3.963643        -2.040171
 H        -3.504672        -2.684565        -2.972501
 H        -2.618731        -3.966826        -2.157493
