19
Iteration:  4541charge 0 multiplicity 1
 C         1.459370         0.062036        -0.351702
 C        -0.010504        -0.240530        -0.038580
 C        -1.201055        -0.282967         0.131318
 C        -2.574944        -0.457877         0.591962
 O        -3.031473         0.822513         0.917607
 C        -3.414627        -0.848424        -0.704860
 O        -4.300233        -1.948202        -0.437527
 C        -3.240713        -2.103136        -1.409139
 C        -3.536453        -2.200743        -2.886534
 H         1.917998         0.647436        -1.276766
 H         1.723938         0.471444         0.674742
 H         1.932230        -0.880156        -0.442246
 H        -2.692631        -1.134176         1.392810
 H        -2.271788         1.436610         0.904331
 H        -3.985859         0.105265        -1.020817
 H        -2.240407        -2.620552        -1.018388
 H        -3.730327        -3.276073        -3.188765
 H        -4.489318        -1.707124        -3.243932
 H        -2.734745        -2.081368        -3.709523
