19
Iteration:  4968
 C         1.527559         0.175096        -0.043220
 C         0.100687        -0.105386        -0.079523
 C        -1.116111        -0.066663        -0.083092
 C        -2.423851        -0.483182         0.348127
 O        -3.008235         0.362267         1.228420
 C        -3.225382        -0.776767        -0.909932
 O        -4.437491        -1.567077        -0.555726
 C        -3.350428        -2.223517        -1.369625
 C        -3.803956        -2.446708        -2.862740
 H         1.880308         0.626891         0.910240
 H         2.189660        -0.715920        -0.302815
 H         1.733550         0.973328        -0.776925
 H        -2.315288        -1.435048         0.898126
 H        -2.718535         1.275209         1.218373
 H        -3.568701         0.171261        -1.496489
 H        -2.694310        -2.886739        -0.906456
 H        -4.603733        -3.251171        -2.934685
 H        -4.401054        -1.503036        -3.189915
 H        -2.973148        -2.759602        -3.443695
