19
Iteration:  4511charge 0 multiplicity 1
 C         1.435003         0.058022        -0.381294
 C         0.041411        -0.238848        -0.077623
 C        -1.089765        -0.420066         0.260220
 C        -2.525913        -0.315845         0.458862
 O        -3.150847         0.941876         1.042939
 C        -3.363867        -0.806751        -0.819256
 O        -4.307569        -1.999077        -0.494163
 C        -3.224554        -2.156399        -1.392517
 C        -3.559241        -2.266345        -2.869339
 H         1.674446         0.900124        -1.005433
 H         1.984643         0.211097         0.573725
 H         1.895243        -0.936662        -0.707644
 H        -2.758969        -1.086871         1.272524
 H        -2.503197         1.334700         1.644163
 H        -3.990930         0.054542        -1.211591
 H        -2.290418        -2.778962        -1.018147
 H        -3.850266        -3.368010        -2.954248
 H        -4.567758        -1.676474        -3.103462
 H        -2.916921        -1.890488        -3.680788
