19
Iteration:  2284
 C         1.584526         0.239870        -0.230261
 C         0.057241        -0.045738        -0.335869
 C        -1.101194        -0.228940         0.167208
 C        -2.545300        -0.331763         0.385375
 O        -3.226349         0.993720         0.468309
 C        -3.243426        -0.916441        -0.781771
 O        -4.480544        -1.636078        -0.555388
 C        -3.348882        -2.385897        -0.977229
 C        -3.449074        -2.887370        -2.361972
 H         1.849827         1.114215        -0.977663
 H         1.937791         0.526234         0.776866
 H         2.188565        -0.623903        -0.515758
 H        -2.803399        -0.788653         1.282048
 H        -2.647765         1.559534         1.057199
 H        -3.433987        -0.309031        -1.671477
 H        -3.015014        -3.121456        -0.086195
 H        -4.048134        -3.806914        -2.320254
 H        -3.867236        -2.226092        -3.188168
 H        -2.410210        -3.259771        -2.633880
