19
Iteration:  2616charge 0 multiplicity 1
 C         1.566425         0.082759        -0.224135
 C         0.040555        -0.087327        -0.242102
 C        -1.140949         0.019332         0.045704
 C        -2.523650        -0.237059         0.366361
 O        -3.231510         0.884654         0.642956
 C        -3.362834        -0.890395        -0.839993
 O        -4.465168        -1.648752        -0.478055
 C        -3.312816        -2.349750        -1.066274
 C        -3.343478        -2.837461        -2.454318
 H         1.829839         0.066388         0.762287
 H         1.994602        -0.892154        -0.552419
 H         1.959820         0.963575        -0.818157
 H        -2.528750        -1.031564         1.223393
 H        -2.676147         1.406408         1.247307
 H        -3.360035        -0.413492        -1.861166
 H        -2.896922        -3.142629        -0.329930
 H        -3.923625        -3.757701        -2.616064
 H        -3.983092        -2.110285        -3.018173
 H        -2.462289        -3.146951        -2.974813
