19
Iteration:   617charge 0 multiplicity 1
 C         1.349015         0.014755        -0.247441
 C        -0.021636        -0.090955        -0.148267
 C        -1.158175        -0.130892         0.223243
 C        -2.663441        -0.059691         0.317643
 O        -3.416355         1.213044         0.007056
 C        -3.090567        -0.937466        -0.823920
 O        -4.409166        -1.458583        -0.848949
 C        -3.165763        -2.450802        -0.715256
 C        -3.129949        -3.266265        -1.862116
 H         1.898305         0.942175        -0.116272
 H         1.518462        -0.588146         0.563459
 H         1.866288        -0.397645        -1.146701
 H        -3.022868        -0.481272         1.212229
 H        -3.141083         1.681216         0.775246
 H        -2.639816        -0.335504        -1.588658
 H        -3.197425        -2.930960         0.190474
 H        -4.010298        -3.970460        -1.793316
 H        -3.382738        -2.789500        -2.880169
 H        -2.228575        -4.014754        -1.979293
