19
Iteration:  3009charge 0 multiplicity 1
 C         1.482850         0.209112        -0.369620
 C         0.092669        -0.149005        -0.115025
 C        -1.089115        -0.355522         0.216456
 C        -2.602514        -0.269881         0.433751
 O        -3.169602         0.952308         0.764786
 C        -3.343538        -0.842945        -0.816638
 O        -4.480786        -1.609665        -0.530502
 C        -3.287712        -2.269059        -1.147504
 C        -3.413948        -2.874523        -2.608728
 H         2.121702        -0.657480        -0.389902
 H         1.502526         0.463521        -1.431917
 H         1.813317         0.832599         0.360377
 H        -2.754941        -1.062307         1.266951
 H        -2.390748         1.333182         1.197846
 H        -3.364518        -0.053131        -1.540963
 H        -2.545769        -2.658215        -0.492098
 H        -3.932623        -3.875748        -2.776783
 H        -3.890737        -2.137703        -3.372123
 H        -2.331948        -2.935546        -2.949211
