19
Iteration:   248charge 0 multiplicity 1
 C         1.418198         0.170594        -0.090478
 C        -0.012651         0.169481        -0.075885
 C        -1.199011        -0.095235         0.114516
 C        -2.600814        -0.107276         0.186746
 O        -3.180611         1.161022        -0.016656
 C        -3.101026        -1.028118        -0.914586
 O        -4.422409        -1.454325        -0.852131
 C        -3.264066        -2.407823        -0.698822
 C        -3.395275        -3.525199        -1.798497
 H         1.862878         0.500822        -1.000389
 H         1.730387         0.850654         0.700153
 H         1.888016        -0.673156         0.315638
 H        -2.991138        -0.502130         1.133259
 H        -2.744594         1.576475         0.722578
 H        -2.786568        -0.705380        -1.933276
 H        -3.196527        -2.909707         0.352565
 H        -4.261307        -4.194129        -1.549687
 H        -3.589719        -3.106786        -2.814991
 H        -2.516465        -4.128010        -2.013018
