19
Iteration:  2909
 C         1.544314         0.230701        -0.439081
 C         0.086586         0.071143        -0.016443
 C        -1.107805        -0.137653         0.179561
 C        -2.501226        -0.552308         0.449661
 O        -3.142223         0.827375         0.880441
 C        -3.152193        -0.967031        -0.833289
 O        -4.591433        -1.411845        -0.749747
 C        -3.497563        -2.350623        -1.103845
 C        -3.404977        -2.910129        -2.456977
 H         1.627580        -0.304045        -1.443489
 H         1.789981         1.309119        -0.642099
 H         2.207487        -0.200611         0.283578
 H        -2.743509        -1.180014         1.426271
 H        -2.976429         1.439413         0.125390
 H        -2.626328        -0.371721        -1.627901
 H        -3.390191        -2.897832        -0.205421
 H        -4.125138        -3.692831        -2.826920
 H        -3.454650        -1.965693        -3.174301
 H        -2.291358        -3.280027        -2.625683
