19
Iteration:  3940charge 0 multiplicity 1
 C         1.464122         0.002803        -0.404157
 C         0.068291        -0.035726        -0.227335
 C        -1.095965        -0.325502         0.126762
 C        -2.589774        -0.405796         0.562268
 O        -3.242266         0.807204         1.052563
 C        -3.315404        -0.771925        -0.795040
 O        -4.491437        -1.589256        -0.610498
 C        -3.268387        -2.215441        -1.189373
 C        -3.314880        -2.642880        -2.756518
 H         1.677881         0.417028        -1.383592
 H         1.933267         0.639011         0.327169
 H         2.107799        -0.955661        -0.427110
 H        -2.675422        -1.142235         1.318529
 H        -2.580270         1.489143         1.249339
 H        -3.459420         0.057046        -1.433008
 H        -2.756931        -2.755569        -0.446904
 H        -3.432693        -3.747889        -2.761485
 H        -4.214573        -2.207142        -3.272282
 H        -2.353460        -2.440310        -3.306830
