19
Iteration:  2043
 C         1.423319         0.227485        -0.422406
 C         0.009511        -0.104296        -0.173889
 C        -1.165359        -0.112055         0.163834
 C        -2.564830        -0.312495         0.386648
 O        -3.163044         0.994775         0.682970
 C        -3.087779        -0.885695        -0.873457
 O        -4.498689        -1.356957        -0.799196
 C        -3.454846        -2.394181        -0.886334
 C        -3.315175        -3.218966        -2.235030
 H         2.166344        -0.160382         0.392811
 H         1.686679        -0.114574        -1.385193
 H         1.657632         1.291964        -0.396632
 H        -2.823279        -1.264295         1.058509
 H        -2.393064         1.630220         0.742535
 H        -3.109869        -0.259613        -1.781086
 H        -3.164052        -2.851118        -0.007519
 H        -3.975042        -4.097676        -2.111209
 H        -3.327474        -2.792572        -3.274714
 H        -2.384818        -3.858487        -2.170888
