19
Iteration:  2758
 C         1.459693         0.346011        -0.271357
 C         0.080368        -0.074901        -0.216681
 C        -1.048225        -0.303279         0.222737
 C        -2.434361        -0.310864         0.384059
 O        -3.195488         0.876841         0.724639
 C        -3.090094        -1.015013        -0.826497
 O        -4.534398        -1.501544        -0.608384
 C        -3.446901        -2.370135        -1.092617
 C        -3.544130        -2.883091        -2.517953
 H         1.668503         1.422551        -0.292669
 H         1.765790         0.077580         0.802250
 H         2.165143        -0.267446        -0.970320
 H        -2.468399        -0.907532         1.276560
 H        -2.748219         1.646848         0.315974
 H        -2.866375        -0.404459        -1.692878
 H        -3.155840        -3.132185        -0.265544
 H        -4.202784        -3.669933        -2.710741
 H        -3.710521        -2.003520        -3.193266
 H        -2.599497        -3.322664        -2.584186
