19
Iteration:  1603
 C         1.456540         0.116155        -0.264142
 C        -0.008054         0.053984        -0.337376
 C        -1.155773        -0.103653         0.041148
 C        -2.562089        -0.252427         0.333349
 O        -3.116797         1.105286         0.763936
 C        -3.219960        -0.907759        -0.895436
 O        -4.482028        -1.450233        -0.727562
 C        -3.383521        -2.372875        -0.959229
 C        -3.317798        -3.334869        -2.230120
 H         1.775024         0.610346         0.710901
 H         1.901651        -0.848472        -0.259059
 H         1.702086         0.761495        -1.154913
 H        -2.733419        -0.992437         1.196390
 H        -2.714119         1.975396         0.503203
 H        -3.025576        -0.521989        -1.900250
 H        -3.196224        -2.988314         0.053147
 H        -3.967069        -4.117077        -1.863118
 H        -3.676009        -2.888650        -3.145820
 H        -2.308882        -3.725607        -2.264818
