19
Iteration:   496charge 0 multiplicity 1
 C         1.220521        -0.183553        -0.069671
 C        -0.170252        -0.131083        -0.274987
 C        -1.287004        -0.014593         0.065528
 C        -2.701227         0.084163         0.223454
 O        -3.247242         1.415300         0.158983
 C        -3.117063        -0.960023        -0.843010
 O        -4.362140        -1.698569        -0.611596
 C        -3.123588        -2.384270        -0.773548
 C        -3.036508        -3.284931        -1.987520
 H         1.507345        -0.002017         0.992786
 H         1.777243        -0.997333        -0.478987
 H         1.562130         0.802783        -0.524070
 H        -3.076994        -0.343629         1.182850
 H        -2.792561         1.993223        -0.443925
 H        -3.032163        -0.663844        -1.914703
 H        -2.882789        -2.752605         0.178248
 H        -3.212850        -4.356669        -1.839597
 H        -3.664208        -3.101380        -2.904986
 H        -1.968556        -3.424862        -2.379977
