19
Iteration:  4374
 C         1.460104         0.002277        -0.484976
 C         0.032600        -0.041692        -0.235684
 C        -1.130887        -0.282005         0.172545
 C        -2.572211        -0.420280         0.463387
 O        -3.209843         0.675443         1.289939
 C        -3.244194        -0.714846        -0.839174
 O        -4.456070        -1.639090        -0.665743
 C        -3.360561        -2.152753        -1.258336
 C        -3.325657        -2.530345        -2.730616
 H         2.062277         0.813894         0.026977
 H         1.651457        -0.916132         0.050952
 H         1.730788         0.006568        -1.544109
 H        -2.818916        -1.343889         1.041118
 H        -2.442954         1.195295         1.597212
 H        -3.361810         0.040163        -1.515797
 H        -2.873073        -2.902986        -0.601051
 H        -3.754479        -3.471139        -3.028107
 H        -3.760011        -1.743309        -3.338060
 H        -2.204902        -2.479012        -2.982066
