19
Iteration:   878
 C         1.587366         0.274696         0.002590
 C         0.104865         0.040030         0.092002
 C        -1.131488         0.027359        -0.005532
 C        -2.568118        -0.268029         0.083534
 O        -3.198868         1.066229         0.085965
 C        -3.125617        -1.003836        -0.928586
 O        -4.455326        -1.465241        -0.575244
 C        -3.428752        -2.461465        -0.866374
 C        -3.494332        -3.359479        -2.076528
 H         2.027359        -0.728402        -0.188955
 H         1.554617         0.967454        -0.780825
 H         2.081947         0.575765         0.924944
 H        -2.796922        -0.742215         0.997331
 H        -3.546896         1.321079         1.008145
 H        -3.188474        -0.552326        -1.921653
 H        -2.867067        -2.762627        -0.003759
 H        -4.166173        -4.110201        -2.001344
 H        -3.591311        -2.774573        -2.975574
 H        -2.474376        -3.675469        -2.142294
