19
Iteration:    68
 C         1.538751         0.200063        -0.079287
 C         0.065779         0.155926         0.065737
 C        -1.160432        -0.013114         0.098589
 C        -2.622388        -0.145421         0.097129
 O        -3.212894         1.080708         0.015603
 C        -3.126286        -1.005274        -1.014997
 O        -4.507114        -1.411169        -0.820889
 C        -3.459521        -2.460374        -0.699377
 C        -3.303974        -3.528114        -1.718599
 H         2.088371         0.585432         0.768581
 H         1.891365        -0.746216        -0.399128
 H         1.806350         0.939108        -0.889573
 H        -2.947169        -0.621445         1.003094
 H        -2.591518         1.730307        -0.374534
 H        -2.897614        -0.735225        -2.066611
 H        -3.286625        -2.879841         0.303173
 H        -4.121259        -4.192941        -1.539766
 H        -3.376317        -3.088465        -2.718701
 H        -2.345251        -4.017174        -1.493879
