19
Iteration:  3366
 C         1.527971         0.058855        -0.504155
 C         0.071049         0.054554        -0.076063
 C        -1.098067        -0.093831         0.197716
 C        -2.483620        -0.398963         0.528410
 O        -3.324548         0.754748         0.876809
 C        -3.130163        -0.900003        -0.798248
 O        -4.486866        -1.489877        -0.606142
 C        -3.390859        -2.336341        -1.174101
 C        -3.446878        -2.782648        -2.651770
 H         1.729181         0.299845        -1.486559
 H         2.099332         0.754657         0.160686
 H         2.072885        -1.008489        -0.311395
 H        -2.529837        -1.205063         1.364878
 H        -2.709255         1.421128         1.254313
 H        -2.919020        -0.036096        -1.473967
 H        -2.926630        -3.045767        -0.556696
 H        -4.120172        -3.590366        -2.643227
 H        -3.941720        -1.880477        -3.024056
 H        -2.483709        -3.054176        -3.144450
