19
Iteration:  2550
 C         1.387543        -0.020979        -0.411001
 C        -0.004567        -0.042029        -0.077840
 C        -1.193656        -0.044653         0.247224
 C        -2.575420        -0.243825         0.363741
 O        -3.188870         0.988783         0.672832
 C        -3.236451        -0.818856        -0.920127
 O        -4.381200        -1.717135        -0.581950
 C        -3.202728        -2.250096        -1.066707
 C        -3.386310        -2.936198        -2.421571
 H         1.892662        -0.643421         0.242104
 H         1.439970        -0.439592        -1.454921
 H         1.953345         0.962564        -0.269022
 H        -2.726368        -1.076298         1.148691
 H        -2.838797         1.675710         1.261639
 H        -3.462370        -0.106994        -1.803295
 H        -2.577584        -2.974325        -0.365665
 H        -3.902612        -3.915466        -2.307837
 H        -3.841938        -2.126021        -3.020811
 H        -2.385835        -3.305914        -2.724613
