19
Iteration:   829
 C         1.607022         0.343492         0.092245
 C         0.149274         0.122702        -0.017944
 C        -1.071917        -0.012533        -0.003018
 C        -2.521763        -0.253334         0.253222
 O        -3.246598         1.124884         0.120623
 C        -3.136034        -1.038714        -0.949076
 O        -4.468255        -1.524082        -0.656744
 C        -3.324219        -2.531144        -0.899860
 C        -3.646183        -3.380286        -2.080597
 H         2.080946        -0.417931        -0.498947
 H         1.791379         1.449261        -0.101939
 H         1.822603         0.038033         1.132820
 H        -2.783413        -0.707136         1.227338
 H        -2.760900         1.803911        -0.348718
 H        -2.926126        -0.607912        -1.930513
 H        -3.186635        -3.200835         0.006719
 H        -4.486824        -4.085719        -1.579202
 H        -4.155005        -2.811835        -2.913211
 H        -2.738123        -3.949198        -2.453321
