19
Iteration:  4273charge 0 multiplicity 1
 C         1.355515         0.281164        -0.481237
 C        -0.026341        -0.129258        -0.081702
 C        -1.108401        -0.437796         0.312516
 C        -2.453611        -0.607796         0.599679
 O        -3.094136         0.714324         0.960766
 C        -3.113415        -0.937934        -0.670678
 O        -4.485226        -1.432490        -0.764869
 C        -3.384802        -2.179005        -1.245254
 C        -3.456405        -2.500771        -2.766662
 H         1.910926         0.259483         0.435907
 H         1.613005        -0.542403        -1.230869
 H         1.422670         1.293403        -1.138321
 H        -2.702512        -1.264121         1.496163
 H        -2.448395         1.264792         1.450459
 H        -2.906634        -0.043695        -1.337878
 H        -3.209547        -2.984552        -0.533820
 H        -4.172792        -3.384486        -2.806614
 H        -3.568734        -1.761990        -3.657064
 H        -2.527524        -3.103735        -3.077900
