19
Iteration:  2373
 C         1.424542        -0.024813        -0.543382
 C         0.042928         0.025677        -0.039605
 C        -1.203668        -0.075411         0.180907
 C        -2.622491        -0.270728         0.459251
 O        -3.288061         0.968091         0.755980
 C        -3.174636        -0.771975        -0.873646
 O        -4.482419        -1.595899        -0.681602
 C        -3.181904        -2.226113        -1.061890
 C        -3.292071        -3.113841        -2.348010
 H         1.472902        -0.414894        -1.574911
 H         1.966824         0.962142        -0.451631
 H         1.920259        -0.723403         0.167017
 H        -2.740977        -1.106934         1.095473
 H        -2.673397         1.716667         0.699552
 H        -3.229693        -0.029386        -1.664415
 H        -2.621696        -2.755325        -0.174008
 H        -3.907426        -3.960555        -2.054076
 H        -3.654058        -2.599591        -3.229011
 H        -2.235402        -3.436075        -2.559588
