19
Iteration:  4631
 C         1.574893        -0.010816        -0.352238
 C         0.017760        -0.199879        -0.149331
 C        -1.150226        -0.326038         0.114815
 C        -2.568840        -0.422902         0.542988
 O        -3.214089         0.781124         1.159191
 C        -3.379087        -0.856938        -0.713701
 O        -4.309988        -1.845944        -0.584822
 C        -3.161987        -2.064495        -1.371400
 C        -3.593235        -2.271632        -2.819862
 H         1.811066        -0.234782        -1.427730
 H         1.739819         1.061099        -0.189561
 H         2.297432        -0.550156         0.314224
 H        -2.721885        -1.168545         1.219613
 H        -2.859644         1.574554         0.701421
 H        -3.612520        -0.017427        -1.306977
 H        -2.191269        -2.593837        -1.084919
 H        -3.769321        -3.389773        -2.907682
 H        -4.486107        -1.598020        -3.262147
 H        -2.801675        -2.122120        -3.513964
