19
Iteration:  4145charge 0 multiplicity 1
 C         1.617627         0.201576        -0.063265
 C         0.156991         0.048122        -0.089947
 C        -1.052471        -0.155497        -0.113481
 C        -2.450377        -0.459792         0.362965
 O        -3.109646         0.535584         1.037011
 C        -3.280019        -0.795596        -0.829868
 O        -4.522254        -1.537735        -0.679316
 C        -3.430308        -2.264655        -1.223863
 C        -3.702173        -2.663844        -2.690560
 H         2.247086        -0.808092        -0.122272
 H         1.874314         0.572144        -1.074124
 H         1.997212         0.838602         0.668543
 H        -2.379001        -1.255884         1.077818
 H        -2.509445         1.202697         1.379729
 H        -3.247232         0.091766        -1.457697
 H        -2.798787        -2.941636        -0.557737
 H        -3.993158        -3.677288        -2.647014
 H        -4.597271        -2.169306        -3.053842
 H        -2.906145        -2.637652        -3.431844
