19
Iteration:  3235
 C         1.392796         0.044065        -0.419967
 C        -0.033339        -0.266060        -0.116598
 C        -1.200056        -0.252610         0.101407
 C        -2.551513        -0.359892         0.452714
 O        -3.177450         1.005973         0.728301
 C        -3.333049        -0.856603        -0.751065
 O        -4.448058        -1.728894        -0.458596
 C        -3.188949        -2.270476        -1.106163
 C        -3.280308        -2.568384        -2.644145
 H         1.439272         1.011033        -0.156836
 H         2.113970        -0.512385         0.218864
 H         1.770872        -0.154641        -1.545810
 H        -2.690079        -0.976537         1.329730
 H        -2.358822         1.275673         1.198296
 H        -3.519031        -0.005501        -1.464619
 H        -2.756991        -2.873840        -0.329210
 H        -3.493387        -3.525703        -2.916216
 H        -4.000235        -1.885518        -3.103870
 H        -2.279709        -2.323213        -3.008725
