19
Iteration:   486charge 0 multiplicity 1
 C         1.304602        -0.138916        -0.057062
 C        -0.130474        -0.152088        -0.263565
 C        -1.318443        -0.014379         0.079871
 C        -2.712628         0.141960         0.197104
 O        -3.241874         1.427453         0.150904
 C        -3.174466        -0.910115        -0.837194
 O        -4.422523        -1.722692        -0.611837
 C        -3.113787        -2.462269        -0.714710
 C        -2.990209        -3.335417        -2.061474
 H         1.460857        -0.279156         1.040488
 H         1.740623        -0.913702        -0.626373
 H         1.859331         0.759428        -0.494043
 H        -2.916389        -0.270355         1.214195
 H        -2.892174         1.788045        -0.632585
 H        -3.121735        -0.445593        -1.835742
 H        -2.903970        -3.023798         0.175430
 H        -3.377878        -4.282516        -1.749909
 H        -3.727524        -2.754952        -2.633923
 H        -1.981173        -3.270237        -2.490315
