19
Iteration:   348
 C         1.465715         0.043535        -0.059224
 C         0.002272         0.076828         0.085980
 C        -1.213161        -0.038396         0.071067
 C        -2.708406        -0.038676         0.070141
 O        -3.203268         1.245775        -0.005914
 C        -3.221675        -0.936643        -1.032681
 O        -4.440508        -1.651252        -0.506682
 C        -3.296758        -2.429175        -0.795257
 C        -3.231349        -3.375515        -1.945159
 H         1.826638        -0.888744        -0.479490
 H         1.793469         0.896622        -0.688099
 H         1.994420         0.175485         0.860428
 H        -2.964013        -0.513953         1.031370
 H        -2.384523         1.784390         0.224662
 H        -3.337450        -0.585213        -2.027992
 H        -2.727388        -2.817904         0.102324
 H        -3.692829        -4.345378        -1.793508
 H        -3.683933        -3.021424        -2.885901
 H        -2.201976        -3.690525        -2.174916
