19
Iteration:  1913charge 0 multiplicity 1
 C         1.411465        -0.085884        -0.510082
 C         0.015515        -0.043556         0.029342
 C        -1.165672        -0.090162         0.158126
 C        -2.689210        -0.204001         0.324464
 O        -3.286661         1.123893         0.492465
 C        -3.206516        -0.782434        -0.912954
 O        -4.401169        -1.685829        -0.521204
 C        -3.164922        -2.273039        -0.984801
 C        -3.271433        -3.095244        -2.246052
 H         1.467950        -1.015884        -1.181374
 H         1.521707         0.782359        -1.176742
 H         2.123213        -0.059796         0.354815
 H        -2.963664        -0.900358         1.088476
 H        -2.956259         1.455028         1.379973
 H        -3.216079        -0.023488        -1.753450
 H        -2.401256        -2.767055        -0.175290
 H        -4.137256        -3.787947        -2.288255
 H        -3.467101        -2.210203        -2.909938
 H        -2.229512        -3.470066        -2.452933
