19
Iteration:  1021
 C         1.313441        -0.140270        -0.353212
 C        -0.033604         0.094910        -0.027181
 C        -1.217936        -0.033466         0.184946
 C        -2.647019        -0.011544         0.342914
 O        -3.136264         1.296700         0.406025
 C        -3.161268        -0.973952        -0.854965
 O        -4.471315        -1.535688        -0.812028
 C        -3.333063        -2.454283        -0.858417
 C        -3.041642        -3.323838        -2.076587
 H         1.978775        -0.330670         0.565652
 H         1.342842        -0.866072        -1.138073
 H         1.539323         0.864831        -0.767828
 H        -2.861222        -0.610249         1.276195
 H        -3.957033         1.280742        -0.184115
 H        -2.903969        -0.560794        -1.853013
 H        -3.087690        -3.037761         0.044289
 H        -3.753636        -4.206620        -1.890611
 H        -3.284168        -2.744846        -3.014589
 H        -1.945734        -3.717252        -2.115749
