19
Iteration:  2154
 C         1.627019         0.253397        -0.135552
 C         0.190601         0.105630        -0.131850
 C        -1.013050        -0.069242        -0.048912
 C        -2.505092        -0.252485         0.305649
 O        -3.220298         0.933406         0.558537
 C        -3.129621        -1.040946        -0.844865
 O        -4.499005        -1.588388        -0.576284
 C        -3.449731        -2.471523        -0.893268
 C        -3.641381        -3.024303        -2.368374
 H         1.915912         1.054721         0.650524
 H         2.179307        -0.646605         0.117154
 H         1.794910         0.688838        -1.112594
 H        -2.894331        -0.994651         1.184862
 H        -3.146436         1.288774        -0.336881
 H        -3.121554        -0.547440        -1.860164
 H        -3.117641        -3.124691        -0.198698
 H        -4.151011        -3.989401        -2.459785
 H        -4.319529        -2.183683        -2.638303
 H        -2.679960        -2.958224        -2.930655
