19
Iteration:  1318
 C         1.550790         0.253136        -0.163616
 C         0.122078        -0.091182         0.075303
 C        -1.081565        -0.034357        -0.011264
 C        -2.495475        -0.191368         0.191035
 O        -3.172758         1.061849         0.355347
 C        -3.191749        -0.919935        -0.899822
 O        -4.503249        -1.574334        -0.563609
 C        -3.379757        -2.394191        -0.883117
 C        -3.553099        -3.236346        -2.162715
 H         1.610592         0.286428        -1.349548
 H         1.880347         1.281516         0.121201
 H         2.292648        -0.532046         0.213497
 H        -2.346426        -0.832125         1.125915
 H        -3.989591         1.223691        -0.218106
 H        -3.059693        -0.513667        -1.918922
 H        -2.867904        -3.002112        -0.045789
 H        -4.199613        -4.142459        -2.223564
 H        -3.746045        -2.473160        -2.989162
 H        -2.520643        -3.602699        -2.409578
