19
Iteration:  3364charge 0 multiplicity 1
 C         1.538505         0.044625        -0.483083
 C         0.082482         0.044059        -0.094307
 C        -1.091275        -0.088826         0.201975
 C        -2.476902        -0.373267         0.536112
 O        -3.328040         0.736352         0.867364
 C        -3.158054        -0.883522        -0.788810
 O        -4.489442        -1.499076        -0.609327
 C        -3.377596        -2.331574        -1.176012
 C        -3.448380        -2.780268        -2.644052
 H         1.691375         0.341973        -1.569325
 H         2.048062         0.760529         0.158485
 H         2.028276        -0.927221        -0.393751
 H        -2.569896        -1.245673         1.345269
 H        -2.719651         1.424221         1.224735
 H        -2.863889        -0.004545        -1.425274
 H        -2.959267        -3.087961        -0.511406
 H        -4.127730        -3.653825        -2.668848
 H        -3.954546        -1.815272        -3.054171
 H        -2.435872        -3.051765        -3.123577
