19
Iteration:  2916
 C         1.517859         0.218274        -0.457074
 C         0.119104         0.113760         0.013635
 C        -1.067726        -0.139338         0.232904
 C        -2.502800        -0.549090         0.450358
 O        -3.132775         0.844190         0.852309
 C        -3.202217        -0.980125        -0.758247
 O        -4.594722        -1.418732        -0.753499
 C        -3.514858        -2.309557        -1.107181
 C        -3.360850        -2.926446        -2.503003
 H         1.794110        -0.338017        -1.427873
 H         1.638365         1.230672        -0.795240
 H         2.165719        -0.202581         0.291163
 H        -2.728893        -1.302382         1.174820
 H        -2.783617         1.332139         0.075693
 H        -3.003077        -0.303719        -1.642965
 H        -3.336137        -3.116073        -0.363095
 H        -4.200625        -3.594796        -2.767517
 H        -3.495829        -2.135334        -3.184280
 H        -2.385055        -3.388626        -2.659128
