19
Iteration:  4628
 C         1.560184        -0.011721        -0.318374
 C         0.032032        -0.208622        -0.165561
 C        -1.167171        -0.332136         0.097823
 C        -2.568550        -0.426591         0.533682
 O        -3.210697         0.798639         1.152559
 C        -3.370237        -0.860313        -0.681508
 O        -4.306778        -1.853687        -0.563526
 C        -3.176307        -2.065714        -1.371945
 C        -3.593115        -2.277603        -2.866649
 H         1.713694        -0.196537        -1.482913
 H         1.802873         1.103865        -0.184344
 H         2.271737        -0.531962         0.258811
 H        -2.650793        -1.229969         1.362718
 H        -2.836519         1.591527         0.716441
 H        -3.618944         0.051159        -1.347525
 H        -2.199432        -2.571900        -1.112848
 H        -3.784966        -3.361233        -2.861730
 H        -4.415544        -1.597990        -3.180403
 H        -2.713597        -2.093599        -3.575067
