19
Iteration:  3601
 C         1.613150         0.140475        -0.221914
 C         0.102633         0.069635        -0.134547
 C        -1.053503        -0.047598         0.279919
 C        -2.440800        -0.393634         0.321889
 O        -3.149654         0.727528         0.920802
 C        -3.216550        -0.880988        -0.854497
 O        -4.383847        -1.610283        -0.504300
 C        -3.417198        -2.322318        -1.337315
 C        -3.774353        -2.808066        -2.643520
 H         2.136956        -0.452740         0.450464
 H         1.993180         0.097290        -1.260960
 H         1.889504         1.292264         0.078203
 H        -2.587140        -1.162246         1.199162
 H        -2.970813         1.588540         0.477972
 H        -3.213027        -0.220162        -1.792740
 H        -3.001455        -3.218650        -0.757064
 H        -4.618752        -3.512799        -2.624755
 H        -4.009210        -2.047048        -3.460126
 H        -2.946768        -3.223441        -3.153602
