19
Iteration:  2761charge 0 multiplicity 1
 C         1.474305         0.345343        -0.251964
 C         0.097105        -0.058043        -0.216271
 C        -1.022392        -0.295627         0.195231
 C        -2.453260        -0.331837         0.401091
 O        -3.208092         0.886616         0.738219
 C        -3.073256        -1.005770        -0.829608
 O        -4.537457        -1.505623        -0.611272
 C        -3.478066        -2.376380        -1.127238
 C        -3.548410        -2.891526        -2.486714
 H         1.607872         1.357137        -0.475136
 H         1.777545         0.040667         0.764009
 H         2.109465        -0.266644        -0.962988
 H        -2.536008        -0.868320         1.408171
 H        -2.736376         1.655104         0.363375
 H        -2.831228        -0.376836        -1.669593
 H        -3.152081        -3.046455        -0.291710
 H        -4.231332        -3.709031        -2.762642
 H        -3.609807        -2.095757        -3.221244
 H        -2.536082        -3.310441        -2.670584
