19
Iteration:  3606charge 0 multiplicity 1
 C         1.615911         0.161138        -0.235037
 C         0.110004         0.096293        -0.120427
 C        -1.021902        -0.050761         0.258180
 C        -2.466664        -0.357141         0.345399
 O        -3.135814         0.728939         0.935050
 C        -3.191828        -0.887504        -0.864132
 O        -4.410617        -1.636385        -0.516789
 C        -3.437172        -2.350747        -1.287388
 C        -3.764001        -2.786809        -2.706331
 H         2.072573        -0.616065         0.504715
 H         2.094247        -0.040296        -1.201990
 H         1.811052         1.123724        -0.039745
 H        -2.701684        -1.092066         1.051808
 H        -3.071707         1.593055         0.514574
 H        -3.185638        -0.183925        -1.651639
 H        -2.922211        -3.064127        -0.705168
 H        -4.566685        -3.527170        -2.572861
 H        -4.098607        -2.026907        -3.369519
 H        -2.922656        -3.431220        -3.166185
