19
Iteration:  3913
 C         1.358774        -0.092246        -0.460884
 C         0.023037        -0.179974        -0.164752
 C        -1.142030        -0.072372         0.121441
 C        -2.525504        -0.443165         0.449639
 O        -3.246415         0.743213         1.132417
 C        -3.318345        -0.762401        -0.827865
 O        -4.485752        -1.570442        -0.690188
 C        -3.192314        -2.148178        -1.195382
 C        -3.284703        -2.647215        -2.617346
 H         1.506169         0.760552        -1.364110
 H         1.845358         0.439483         0.420360
 H         1.977298        -0.896188        -0.770072
 H        -2.380834        -1.293437         1.254871
 H        -2.562593         1.439766         1.106833
 H        -3.464832         0.151609        -1.503294
 H        -2.659262        -2.731424        -0.360432
 H        -3.244193        -3.739097        -2.480773
 H        -4.103560        -2.234741        -3.199458
 H        -2.345136        -2.408860        -3.102618
