19
Iteration:  2215charge 0 multiplicity 1
 C         1.514135         0.332380        -0.122989
 C         0.151583         0.055815        -0.039786
 C        -1.037256        -0.254629         0.018782
 C        -2.606345        -0.265504         0.180515
 O        -3.016191         1.057721         0.585141
 C        -3.365888        -0.854723        -0.917097
 O        -4.492567        -1.725363        -0.520004
 C        -3.292056        -2.358065        -1.086436
 C        -3.620666        -3.106697        -2.323528
 H         1.706950         1.424921        -0.123702
 H         2.230265        -0.158910         0.539751
 H         1.839126        -0.012911        -1.121533
 H        -2.766982        -0.953125         0.980841
 H        -2.222883         1.474223         0.972629
 H        -3.635364        -0.198415        -1.795330
 H        -2.762857        -3.114147        -0.295938
 H        -4.248661        -3.973452        -2.070428
 H        -4.242058        -2.659415        -3.120532
 H        -2.785182        -3.612704        -2.800084
