19
Iteration:  3132charge 0 multiplicity 1
 C         1.461455        -0.092978        -0.403674
 C         0.060695        -0.049784         0.032786
 C        -1.142999        -0.154455         0.078156
 C        -2.596455        -0.259541         0.327182
 O        -3.286366         1.012759         0.836546
 C        -3.365813        -0.811470        -0.775007
 O        -4.255129        -1.808745        -0.505800
 C        -3.127274        -2.207846        -1.240369
 C        -3.510423        -2.715629        -2.590025
 H         2.112770         0.140923         0.610530
 H         1.765666        -1.076371        -0.774631
 H         1.787498         0.858052        -1.046865
 H        -2.871273        -1.093302         1.010609
 H        -2.618225         1.180321         1.517868
 H        -3.624825        -0.067320        -1.510487
 H        -2.344718        -2.767639        -0.640665
 H        -4.193300        -3.697775        -2.442585
 H        -4.105113        -1.980429        -3.172519
 H        -2.701644        -3.146407        -3.260290
