19
Iteration:   759
 C         1.531298         0.438128         0.048200
 C         0.159043        -0.034590         0.067825
 C        -1.067417        -0.139163        -0.073150
 C        -2.548003        -0.271361         0.171736
 O        -3.136711         1.128917         0.166403
 C        -3.204793        -0.950929        -0.943828
 O        -4.539839        -1.561114        -0.715343
 C        -3.469980        -2.429696        -0.839476
 C        -3.481755        -3.359443        -1.976808
 H         2.103151         0.452162        -0.942579
 H         1.573796         1.333415         0.615808
 H         2.237087        -0.348081         0.480875
 H        -2.646497        -0.702154         1.239291
 H        -2.920774         1.422849        -0.707714
 H        -3.193896        -0.514862        -1.941192
 H        -3.159598        -2.853592         0.085293
 H        -4.232182        -4.135424        -1.835483
 H        -3.615565        -2.845765        -2.964934
 H        -2.453736        -3.807014        -1.994159
