19
Iteration:  2610charge 0 multiplicity 1
 C         1.595008         0.048516        -0.244978
 C         0.060612        -0.065055        -0.229973
 C        -1.170879         0.068914         0.051766
 C        -2.536708        -0.251804         0.331291
 O        -3.232811         0.904961         0.648411
 C        -3.337308        -0.906564        -0.801028
 O        -4.492636        -1.672082        -0.473676
 C        -3.310135        -2.357048        -1.065721
 C        -3.346320        -2.852768        -2.482240
 H         1.962985        -0.035057         0.892356
 H         2.154907        -0.793753        -0.672677
 H         1.922250         0.897938        -0.818929
 H        -2.635539        -1.020512         1.057165
 H        -2.770786         1.399210         1.353625
 H        -3.369854        -0.277083        -1.674710
 H        -3.029841        -3.007979        -0.324787
 H        -4.011419        -3.745469        -2.523665
 H        -3.868304        -2.180652        -3.175299
 H        -2.313947        -3.057521        -2.895614
