19
Iteration:  4082charge 0 multiplicity 1
 C         1.574236         0.220718        -0.094755
 C         0.178423         0.025755        -0.057069
 C        -0.989237        -0.298340         0.025383
 C        -2.484990        -0.458865         0.389728
 O        -3.094905         0.776228         0.880959
 C        -3.274957        -0.866599        -0.806929
 O        -4.531053        -1.720812        -0.575645
 C        -3.355848        -2.215048        -1.307349
 C        -3.741893        -2.610169        -2.734348
 H         2.035235        -0.606109        -0.665611
 H         1.615077         1.175356        -0.535016
 H         2.112609         0.303583         0.800690
 H        -2.532026        -1.228827         1.249287
 H        -2.391653         1.066558         1.477951
 H        -3.426976        -0.116167        -1.514530
 H        -2.654909        -2.866626        -0.832143
 H        -4.412128        -3.469775        -2.666117
 H        -4.377765        -1.817552        -2.995736
 H        -2.927871        -2.793998        -3.452649
