19
Iteration:  3981
 C         1.465583         0.094670        -0.359487
 C         0.040257        -0.053922         0.044126
 C        -1.178051        -0.239887         0.168177
 C        -2.503456        -0.497789         0.487662
 O        -3.042349         0.893728         0.856090
 C        -3.306581        -0.873195        -0.740344
 O        -4.512634        -1.705938        -0.592919
 C        -3.283219        -2.281645        -1.253821
 C        -3.494444        -2.563779        -2.747934
 H         1.440956         0.318712        -1.547474
 H         1.679231         1.105175        -0.034379
 H         2.162885        -0.654010        -0.037315
 H        -2.630654        -1.307157         1.343271
 H        -2.270091         1.343121         1.282715
 H        -3.323081        -0.076616        -1.538212
 H        -2.767862        -3.115304        -0.718632
 H        -4.043245        -3.394014        -3.111655
 H        -3.842683        -1.553657        -3.069863
 H        -2.518646        -2.582925        -3.222604
