19
Iteration:  1360
 C         1.522224         0.259899        -0.130927
 C         0.115053         0.152924        -0.202318
 C        -1.022607        -0.103615         0.060372
 C        -2.499367        -0.290506         0.283843
 O        -3.189873         1.011358         0.479314
 C        -3.194454        -0.999449        -0.930765
 O        -4.484653        -1.427760        -0.727485
 C        -3.486085        -2.428450        -0.941190
 C        -3.517661        -3.311141        -2.096695
 H         2.000941        -0.223744        -1.065606
 H         1.830254         1.353797        -0.244118
 H         2.041281        -0.283882         0.682530
 H        -2.782798        -0.881302         1.188088
 H        -2.517417         1.655697         0.468626
 H        -3.069802        -0.391980        -1.878995
 H        -3.144329        -2.946056         0.036308
 H        -4.124180        -4.141971        -1.785367
 H        -4.010877        -2.960350        -3.001436
 H        -2.548013        -3.747766        -2.227485
