19
Iteration:  3497
 C         1.507017         0.377385        -0.214013
 C         0.101902         0.094582        -0.122385
 C        -1.007973        -0.446673         0.027445
 C        -2.529178        -0.467546         0.419174
 O        -2.927949         0.761413         0.847629
 C        -3.295038        -0.911834        -0.788778
 O        -4.613358        -1.444405        -0.697576
 C        -3.457930        -2.365242        -1.124463
 C        -3.558478        -2.799404        -2.591279
 H         2.225183        -0.392834        -0.735979
 H         1.612749         1.297097        -0.845594
 H         1.911510         0.586589         0.746982
 H        -2.806129        -1.168584         1.240652
 H        -2.299137         1.170992         1.477632
 H        -3.247966        -0.160414        -1.532657
 H        -3.251049        -3.180366        -0.482142
 H        -4.168435        -3.711298        -2.583500
 H        -4.050531        -2.104414        -3.264906
 H        -2.497572        -3.074997        -2.966300
