19
Iteration:   244
 C         1.436186         0.195972        -0.084124
 C        -0.000982         0.153733        -0.044461
 C        -1.191946        -0.099343         0.115982
 C        -2.630307        -0.098085         0.171528
 O        -3.190929         1.144406        -0.010414
 C        -3.113506        -1.004430        -0.944148
 O        -4.420980        -1.452659        -0.843143
 C        -3.279833        -2.412823        -0.692779
 C        -3.395193        -3.552938        -1.803189
 H         1.827172         0.577280        -1.095714
 H         1.932036         0.894297         0.647455
 H         1.976583        -0.870114         0.237441
 H        -2.919741        -0.531350         1.170619
 H        -2.751600         1.701117         0.693454
 H        -2.715075        -0.662326        -1.932257
 H        -3.258474        -2.842114         0.259913
 H        -4.275642        -4.172754        -1.538863
 H        -3.564572        -3.046157        -2.764126
 H        -2.465156        -4.169412        -1.956950
