19
Iteration:  1275
 C         1.523019         0.129034        -0.181793
 C         0.082419         0.120672        -0.140315
 C        -1.081885        -0.096349         0.200243
 C        -2.598425        -0.140093         0.262953
 O        -3.172891         1.147630         0.189961
 C        -3.188644        -0.975676        -0.886953
 O        -4.440475        -1.675474        -0.532976
 C        -3.334795        -2.458863        -0.864220
 C        -3.499708        -3.192358        -2.253722
 H         1.969240         0.597067        -1.117403
 H         1.865968         0.609427         0.701792
 H         1.775321        -0.926592         0.106364
 H        -3.065369        -0.535157         1.244312
 H        -2.944147         1.523930         1.125417
 H        -3.323527        -0.324161        -1.758125
 H        -2.840827        -2.978339         0.025247
 H        -4.199694        -4.060877        -2.112077
 H        -3.799601        -2.322015        -2.950351
 H        -2.552916        -3.653365        -2.705744
