19
Iteration:  1105charge 0 multiplicity 1
 C         1.350393        -0.167850        -0.383368
 C         0.041121        -0.113074         0.001906
 C        -1.157702        -0.008173         0.100556
 C        -2.678777        -0.028806         0.308696
 O        -3.337798         1.251185         0.295118
 C        -3.177906        -0.846835        -0.876041
 O        -4.500039        -1.567486        -0.652251
 C        -3.186323        -2.348818        -0.859847
 C        -3.011301        -3.217917        -2.052586
 H         2.048528         0.365993         0.186235
 H         1.730186        -1.236839        -0.193901
 H         1.556822        -0.012943        -1.420870
 H        -2.875736        -0.699839         1.155671
 H        -4.140418         0.917655         0.816598
 H        -3.140536        -0.321657        -1.869760
 H        -3.054064        -2.848648         0.076046
 H        -3.656904        -4.042182        -2.146855
 H        -3.318869        -2.675792        -2.910262
 H        -2.008498        -3.469573        -2.138189
