19
Iteration:  2246
 C         1.472017         0.305444        -0.198040
 C         0.132606        -0.022631         0.100880
 C        -1.068912        -0.158648        -0.119521
 C        -2.583469        -0.292473         0.214215
 O        -2.982237         1.057132         0.513947
 C        -3.397536        -0.907094        -0.851377
 O        -4.503093        -1.704906        -0.470515
 C        -3.361960        -2.350702        -1.041865
 C        -3.505948        -3.043324        -2.384720
 H         1.551126         1.237521        -0.644252
 H         2.230043         0.282077         0.601929
 H         1.735127        -0.389577        -1.027099
 H        -2.607573        -1.063280         1.117060
 H        -2.596556         1.214272         1.399333
 H        -3.501304        -0.109689        -1.621822
 H        -2.927611        -3.085963        -0.343953
 H        -4.204215        -3.938001        -2.330080
 H        -3.735107        -2.500140        -3.288261
 H        -2.527716        -3.531982        -2.473129
