19
Iteration:  1724
 C         1.449292        -0.008267        -0.340673
 C        -0.058126         0.012367        -0.141775
 C        -1.213826        -0.156732         0.248545
 C        -2.594553        -0.114374         0.390854
 O        -3.174325         1.210776         0.303636
 C        -3.234815        -0.909794        -0.719972
 O        -4.326306        -1.811403        -0.478294
 C        -3.173774        -2.452720        -0.974452
 C        -3.460604        -2.940815        -2.423208
 H         1.826819         0.936843        -0.745347
 H         1.754051        -0.179273         0.601822
 H         1.446446        -0.912026        -0.904079
 H        -2.878070        -0.437696         1.405865
 H        -2.527726         1.766914         0.731372
 H        -3.213092        -0.332325        -1.611552
 H        -2.406997        -3.149237        -0.379175
 H        -4.019073        -3.842347        -2.257084
 H        -4.119478        -2.294422        -2.918604
 H        -2.523093        -2.987156        -2.881797
