19
Iteration:  4413
 C         1.424345        -0.038342        -0.413785
 C        -0.005243        -0.160901        -0.194109
 C        -1.184546        -0.025095         0.104438
 C        -2.502357        -0.474813         0.546793
 O        -3.192043         0.652684         1.071790
 C        -3.272183        -0.806598        -0.659803
 O        -4.400050        -1.716372        -0.642127
 C        -3.297152        -2.135911        -1.334702
 C        -3.364796        -2.397120        -2.730611
 H         1.848788         0.917516        -0.224445
 H         1.973008        -0.753161         0.246554
 H         1.694134        -0.589400        -1.384417
 H        -2.430062        -1.301373         1.347414
 H        -2.519508         1.270111         1.410486
 H        -3.564090         0.143148        -1.261187
 H        -2.718769        -2.871393        -0.717918
 H        -4.088487        -3.261488        -2.803896
 H        -3.970553        -1.551379        -3.276765
 H        -2.439465        -2.417026        -3.294372
