19
Iteration:  2216
 C         1.510906         0.323979        -0.124878
 C         0.148336         0.055854        -0.028229
 C        -1.033273        -0.253836         0.011972
 C        -2.603761        -0.258976         0.183906
 O        -3.010779         1.055403         0.584268
 C        -3.371383        -0.856708        -0.926441
 O        -4.500124        -1.731298        -0.520994
 C        -3.284007        -2.354155        -1.071403
 C        -3.617937        -3.105864        -2.329980
 H         1.712177         1.461357        -0.144727
 H         2.244327        -0.122019         0.531445
 H         1.823324        -0.012580        -1.123578
 H        -2.736863        -0.940143         0.952975
 H        -2.242682         1.462709         0.987447
 H        -3.645470        -0.154628        -1.771718
 H        -2.777622        -3.101296        -0.278164
 H        -4.248314        -3.964097        -2.080642
 H        -4.248675        -2.661378        -3.134127
 H        -2.797843        -3.641341        -2.809057
