19
Iteration:  3772
 C         1.306995         0.031462        -0.629540
 C         0.005190        -0.121398        -0.042303
 C        -1.116772        -0.289534         0.368902
 C        -2.555230        -0.477748         0.575868
 O        -3.138966         0.889198         0.940264
 C        -3.302500        -0.861257        -0.739671
 O        -4.526142        -1.593618        -0.693535
 C        -3.230640        -2.178102        -1.206254
 C        -3.242476        -2.608445        -2.618610
 H         1.906043         0.942394        -0.237099
 H         2.115296        -0.700951        -0.573633
 H         1.158709         0.191429        -1.661063
 H        -2.621959        -1.158412         1.407484
 H        -2.568008         1.644233         0.737348
 H        -3.346480         0.048347        -1.462592
 H        -2.892361        -3.128430        -0.648002
 H        -3.759991        -3.617860        -2.815034
 H        -3.594287        -1.845149        -3.415754
 H        -2.245384        -2.937039        -3.035738
