19
Iteration:   218charge 0 multiplicity 1
 C         1.531132         0.236388        -0.214610
 C         0.177627         0.026285         0.261592
 C        -1.077646         0.007278         0.171816
 C        -2.566748        -0.124524         0.059300
 O        -3.327436         1.159338         0.031532
 C        -3.126104        -1.042594        -1.034229
 O        -4.558731        -1.464780        -0.831763
 C        -3.433224        -2.409873        -0.782186
 C        -3.357550        -3.565271        -1.773177
 H         1.695110         1.006986        -0.975443
 H         1.982816         0.791761         0.678446
 H         2.152720        -0.638632        -0.393120
 H        -2.763325        -0.562971         1.109220
 H        -2.624268         1.809534         0.288844
 H        -2.953087        -0.713872        -2.030903
 H        -3.352935        -2.755542         0.299655
 H        -4.162617        -4.240822        -1.566895
 H        -3.237651        -3.192956        -2.797616
 H        -2.447550        -4.021413        -1.376613
