19
Iteration:   559
 C         1.452524        -0.192182        -0.267445
 C         0.040027         0.042010         0.194875
 C        -1.193518         0.076025         0.017269
 C        -2.723912        -0.006932         0.161822
 O        -3.344845         1.241103         0.136569
 C        -3.257057        -0.844962        -0.947718
 O        -4.526723        -1.619115        -0.709272
 C        -3.288321        -2.380810        -0.753654
 C        -2.923256        -3.407896        -1.938516
 H         2.185875         0.455662         0.231649
 H         1.722209        -1.278032        -0.332353
 H         1.371737        -0.025463        -1.309635
 H        -3.109956        -0.322246         1.116268
 H        -2.907557         1.882843         0.749371
 H        -3.163110        -0.444505        -2.015267
 H        -2.942170        -2.771799         0.226141
 H        -3.558017        -4.282560        -1.763070
 H        -3.238994        -2.798350        -2.785030
 H        -1.813961        -3.659099        -1.850260
