19
Iteration:    93
 C         1.590234         0.295712        -0.118407
 C         0.195148         0.014033         0.171721
 C        -1.064901        -0.084499         0.103624
 C        -2.525795        -0.224944         0.083567
 O        -3.385452         1.161496         0.043175
 C        -3.117612        -1.015099        -1.071443
 O        -4.593642        -1.462519        -0.889875
 C        -3.473290        -2.413127        -0.692466
 C        -3.302104        -3.456037        -1.656443
 H         2.151407         0.997559         0.482569
 H         2.225472        -0.579143        -0.074628
 H         1.503266         0.664038        -1.147370
 H        -2.873085        -0.687862         1.059030
 H        -2.819307         1.768583        -0.541708
 H        -2.978083        -0.772608        -2.161795
 H        -3.307177        -2.838131         0.440439
 H        -4.231654        -4.067952        -1.557155
 H        -3.379052        -2.909321        -2.617005
 H        -2.364869        -4.024420        -1.477890
