19
Iteration:  4912
 C         1.566713         0.190768        -0.353053
 C         0.212199         0.088146         0.029995
 C        -0.966155        -0.203027         0.239242
 C        -2.413006        -0.562892         0.448584
 O        -3.119543         0.421599         1.271124
 C        -3.265398        -0.852585        -0.851041
 O        -4.553491        -1.517336        -0.712783
 C        -3.461798        -2.194300        -1.412249
 C        -3.720354        -2.479447        -2.854587
 H         2.084166         0.084646         0.651844
 H         2.041548        -0.490513        -1.106325
 H         1.884103         1.173854        -0.655354
 H        -2.542342        -1.470157         0.952753
 H        -2.864466         1.305719         0.930390
 H        -3.281722         0.138315        -1.495089
 H        -3.134195        -3.102568        -0.919155
 H        -4.630901        -3.059500        -2.929232
 H        -3.514033        -1.644706        -3.597610
 H        -2.809033        -3.143984        -2.983328
