19
Iteration:   877charge 0 multiplicity 1
 C         1.587838         0.276864         0.010345
 C         0.109609         0.029361         0.089502
 C        -1.129554         0.030136        -0.001539
 C        -2.567129        -0.272254         0.081374
 O        -3.207982         1.066277         0.081248
 C        -3.128581        -1.018103        -0.929213
 O        -4.448358        -1.460846        -0.572410
 C        -3.430284        -2.453027        -0.864448
 C        -3.492373        -3.353144        -2.075453
 H         1.986802        -0.698052        -0.206863
 H         1.561755         1.003538        -0.794531
 H         2.063417         0.576385         0.912535
 H        -2.783693        -0.729291         0.989420
 H        -3.493862         1.279178         0.998890
 H        -3.191343        -0.561081        -1.936334
 H        -2.847540        -2.748767         0.005038
 H        -4.216346        -4.111968        -2.001008
 H        -3.619835        -2.771105        -2.987987
 H        -2.459344        -3.678343        -2.145985
