19
Iteration:  2367charge 0 multiplicity 1
 C         1.439144        -0.038068        -0.554582
 C         0.050951         0.077400         0.004679
 C        -1.114826        -0.017489         0.215041
 C        -2.659234        -0.279850         0.447451
 O        -3.270335         0.925043         0.721044
 C        -3.218649        -0.794880        -0.880566
 O        -4.495758        -1.611734        -0.687301
 C        -3.187274        -2.173724        -1.019721
 C        -3.311405        -3.122911        -2.350017
 H         1.568402        -0.344866        -1.590778
 H         2.019885         0.900514        -0.399621
 H         2.061245        -0.805189         0.000469
 H        -2.872724        -1.105972         1.247722
 H        -2.635909         1.627206         0.681046
 H        -3.392385        -0.095079        -1.714492
 H        -2.830839        -2.790753        -0.250591
 H        -3.869429        -4.061374        -2.047620
 H        -3.564904        -2.581604        -3.306769
 H        -2.327216        -3.438698        -2.776427
