19
Iteration:  3776charge 0 multiplicity 1
 C         1.296130         0.028550        -0.635116
 C         0.028629        -0.152033        -0.044126
 C        -1.122857        -0.271053         0.365703
 C        -2.544279        -0.443232         0.573490
 O        -3.157878         0.852344         0.923298
 C        -3.334775        -0.849303        -0.689039
 O        -4.478959        -1.591638        -0.709951
 C        -3.241477        -2.180302        -1.235287
 C        -3.225740        -2.598030        -2.590866
 H         1.706841         0.913561        -0.261775
 H         2.077162        -0.739234        -0.446679
 H         1.167348         0.245914        -1.802296
 H        -2.587302        -1.118055         1.460202
 H        -2.560290         1.578778         0.653827
 H        -3.279362        -0.051371        -1.412421
 H        -2.990858        -3.078042        -0.698690
 H        -3.854730        -3.482494        -2.765316
 H        -3.593903        -1.818503        -3.341653
 H        -2.275609        -2.930536        -2.992730
