19
Iteration:  4133
 C         1.620219         0.206382        -0.119070
 C         0.188931         0.042854         0.001783
 C        -1.014043        -0.191974        -0.179263
 C        -2.405684        -0.468437         0.335839
 O        -3.178837         0.610581         1.072388
 C        -3.299912        -0.833967        -0.830456
 O        -4.480519        -1.549514        -0.582936
 C        -3.458671        -2.203929        -1.331944
 C        -3.714102        -2.705240        -2.683773
 H         2.014681        -0.886599         0.004350
 H         1.965996         0.857669        -0.958806
 H         2.008834         0.687820         0.797753
 H        -2.283644        -1.361199         0.906329
 H        -2.487398         1.235306         1.368824
 H        -3.443223        -0.158340        -1.717087
 H        -3.189783        -3.098417        -0.686534
 H        -3.833958        -3.755440        -2.755851
 H        -4.536337        -2.131197        -3.195351
 H        -2.776556        -2.407636        -3.180442
