19
Iteration:  3984
 C         1.434355         0.128322        -0.368016
 C         0.057354        -0.065276         0.065766
 C        -1.154668        -0.261849         0.144291
 C        -2.506388        -0.506198         0.474962
 O        -3.046179         0.896724         0.850072
 C        -3.319105        -0.901995        -0.709834
 O        -4.497586        -1.698101        -0.596833
 C        -3.281088        -2.273909        -1.282760
 C        -3.497672        -2.547216        -2.741643
 H         1.479353         0.181428        -1.503579
 H         1.755958         1.101980         0.030460
 H         2.219127        -0.677835        -0.001992
 H        -2.645602        -1.176969         1.329526
 H        -2.355455         1.426808         1.282620
 H        -3.335338        -0.139100        -1.421457
 H        -2.812268        -3.015623        -0.705291
 H        -4.153937        -3.408826        -3.042589
 H        -3.881209        -1.568772        -3.054739
 H        -2.474888        -2.661901        -3.223398
