19
Iteration:  3340
 C         1.517610         0.074213        -0.492268
 C         0.085991        -0.154282        -0.158219
 C        -1.079294        -0.066449         0.229868
 C        -2.473768        -0.387655         0.409307
 O        -3.368591         0.768282         0.906767
 C        -3.207173        -0.860798        -0.816737
 O        -4.500964        -1.584699        -0.613045
 C        -3.361217        -2.255657        -1.146022
 C        -3.365132        -2.682956        -2.551933
 H         1.903701         0.660344        -1.440540
 H         1.959614         0.453032         0.408647
 H         1.966744        -0.829520        -0.595704
 H        -2.458979        -1.168496         1.293183
 H        -2.719535         1.453439         1.176517
 H        -3.258638         0.027441        -1.499072
 H        -2.711312        -2.937918        -0.522532
 H        -4.036504        -3.609692        -2.412152
 H        -3.901333        -1.853202        -3.134903
 H        -2.355145        -3.021970        -2.930353
