19
Iteration:  3037
 C         1.499869         0.073115        -0.349711
 C         0.083601         0.037038        -0.036678
 C        -1.142259        -0.132730         0.043134
 C        -2.589474        -0.321206         0.388376
 O        -3.035862         0.923086         0.725026
 C        -3.385285        -0.907497        -0.740725
 O        -4.534214        -1.737079        -0.560090
 C        -3.393306        -2.284102        -1.131936
 C        -3.366383        -2.730334        -2.568500
 H         1.977187        -0.901524         0.110424
 H         1.589552         0.006654        -1.444600
 H         2.062048         0.941780         0.205983
 H        -2.554542        -1.078671         1.187809
 H        -2.526494         1.075261         1.534176
 H        -3.415487        -0.120725        -1.567540
 H        -2.787499        -2.999275        -0.459271
 H        -3.497646        -3.774954        -2.654533
 H        -4.005755        -2.213685        -3.238345
 H        -2.317872        -2.608633        -2.835409
