19
Iteration:  1968
 C         1.349574         0.129254        -0.511213
 C        -0.050597        -0.152366        -0.181555
 C        -1.167777        -0.138211         0.294142
 C        -2.607000        -0.180953         0.398651
 O        -3.126014         1.123094         0.561437
 C        -3.132996        -0.915678        -0.780504
 O        -4.460065        -1.431635        -0.742928
 C        -3.396735        -2.441336        -0.968005
 C        -3.185885        -3.153263        -2.232559
 H         1.876973        -0.930468        -0.605842
 H         1.393242         0.478380        -1.568727
 H         1.863654         0.799999         0.241844
 H        -2.860943        -0.887962         1.166424
 H        -3.360980         1.255001         1.483156
 H        -2.752140        -0.429794        -1.748878
 H        -3.275364        -3.162035        -0.018986
 H        -3.741087        -4.125787        -2.205553
 H        -3.504056        -2.334357        -2.973318
 H        -2.075080        -3.367155        -2.377616
