19
Iteration:  2135
 C         1.652398         0.278849        -0.229688
 C         0.189966         0.109770         0.063564
 C        -1.020144        -0.048965        -0.028858
 C        -2.444411        -0.287160         0.218574
 O        -3.217512         0.909887         0.563221
 C        -3.214649        -1.042133        -0.867031
 O        -4.557528        -1.513612        -0.555890
 C        -3.457037        -2.525162        -0.928323
 C        -3.591700        -3.004317        -2.358056
 H         2.082753         0.742349         0.564786
 H         1.965355        -0.804551        -0.239920
 H         1.869463         0.797143        -1.173251
 H        -2.400578        -0.646991         1.241585
 H        -3.581638         1.268596        -0.284566
 H        -3.271616        -0.482632        -1.784319
 H        -3.136869        -3.374364        -0.211651
 H        -4.052697        -3.977387        -2.236557
 H        -4.012296        -2.294819        -3.054651
 H        -2.542607        -3.219204        -2.653362
