19
Iteration:   871charge 0 multiplicity 1
 C         1.547935         0.296352         0.028611
 C         0.118332        -0.016532         0.082135
 C        -1.091619         0.027958         0.022800
 C        -2.526917        -0.239939         0.094512
 O        -3.258379         1.057890         0.049842
 C        -3.167037        -1.079033        -0.997333
 O        -4.423374        -1.450296        -0.553740
 C        -3.424097        -2.421061        -0.843606
 C        -3.482486        -3.311894        -2.069749
 H         1.984624        -0.674774        -0.425367
 H         1.754527         1.077722        -0.744877
 H         2.005449         0.673101         1.009473
 H        -2.740763        -0.758891         1.128080
 H        -3.254219         1.127461         1.069818
 H        -3.120808        -0.611289        -1.965006
 H        -2.907845        -2.853872         0.043114
 H        -4.332923        -4.084579        -1.986489
 H        -3.794691        -2.763388        -2.985412
 H        -2.482904        -3.796189        -2.189062
