19
Iteration:  3213charge 0 multiplicity 1
 C         1.432498         0.056680        -0.396459
 C         0.036529        -0.267301        -0.143801
 C        -1.158189        -0.223501         0.171492
 C        -2.585171        -0.276737         0.480041
 O        -3.237239         0.940453         0.631369
 C        -3.321186        -0.903870        -0.691262
 O        -4.389705        -1.765111        -0.501900
 C        -3.189891        -2.287613        -1.160456
 C        -3.348933        -2.471198        -2.548877
 H         1.778719         0.908824        -0.000855
 H         2.047849        -0.819909        -0.098071
 H         1.565773        -0.095674        -1.572576
 H        -2.876388        -0.948320         1.345896
 H        -2.638607         1.480827         1.189265
 H        -3.435163        -0.174267        -1.556855
 H        -2.778430        -3.077482        -0.525425
 H        -3.660025        -3.432813        -2.717396
 H        -4.092649        -1.768874        -2.938856
 H        -2.378287        -2.291935        -2.995116
