19
Iteration:  3361
 C         1.543563         0.032139        -0.458483
 C         0.105754         0.025278        -0.123988
 C        -1.079789        -0.080847         0.210714
 C        -2.474906        -0.350813         0.547405
 O        -3.328727         0.712023         0.856125
 C        -3.196060        -0.864080        -0.769590
 O        -4.485950        -1.512349        -0.618921
 C        -3.353358        -2.317520        -1.176728
 C        -3.454442        -2.767347        -2.630621
 H         1.617448         0.397042        -1.609818
 H         2.003623         0.784953         0.162620
 H         1.976752        -0.882326        -0.491102
 H        -2.604683        -1.197980         1.248890
 H        -2.763919         1.421374         1.180348
 H        -2.877489        -0.020798        -1.409633
 H        -3.023421        -3.139612        -0.423222
 H        -4.123493        -3.714906        -2.731139
 H        -3.921277        -1.845940        -3.127616
 H        -2.453143        -3.007635        -3.045202
