19
Iteration:   982charge 0 multiplicity 1
 C         1.446331         0.053687        -0.284098
 C         0.060262        -0.106564        -0.046501
 C        -1.140730        -0.140231         0.208522
 C        -2.610629        -0.132654         0.259652
 O        -3.328323         1.147570         0.219255
 C        -3.215484        -0.914105        -0.942269
 O        -4.536229        -1.509297        -0.788030
 C        -3.279492        -2.324854        -0.804240
 C        -3.121506        -3.227445        -1.962693
 H         2.196798        -0.477223         0.307420
 H         1.742915        -0.330067        -1.308393
 H         1.674236         1.128698        -0.209233
 H        -2.994102        -0.646490         1.198952
 H        -3.161907         1.449888         1.088847
 H        -3.087512        -0.465688        -1.922692
 H        -3.297774        -2.745674         0.206485
 H        -3.582785        -4.219928        -1.900303
 H        -3.317163        -2.646004        -2.855796
 H        -2.122509        -3.627037        -1.943921
