19
Iteration:  4861charge 0 multiplicity 1
 C         1.406253         0.356276        -0.422222
 C         0.095606        -0.190160        -0.143432
 C        -1.000922        -0.498547         0.330266
 C        -2.505640        -0.636701         0.576893
 O        -3.128659         0.488577         1.192443
 C        -3.073864        -0.839547        -0.789326
 O        -4.507088        -1.322021        -0.806738
 C        -3.487762        -2.182028        -1.271603
 C        -3.510891        -2.444025        -2.784435
 H         2.280989         0.002243         0.082624
 H         1.591990         0.057052        -1.453223
 H         1.356251         1.470053        -0.430861
 H        -2.758513        -1.593055         1.230589
 H        -2.776435         1.236351         0.680705
 H        -2.770761        -0.136446        -1.451132
 H        -3.274413        -3.031201        -0.636448
 H        -4.167799        -3.312951        -3.020916
 H        -3.903214        -1.470128        -3.148556
 H        -2.586258        -2.572908        -3.233652
