19
Iteration:  3797charge 0 multiplicity 1
 C         1.332244         0.042373        -0.646968
 C        -0.014286        -0.287198        -0.107422
 C        -1.159007        -0.241340         0.295672
 C        -2.603887        -0.395155         0.641689
 O        -3.261609         0.876086         0.977776
 C        -3.107206        -0.854206        -0.736783
 O        -4.472009        -1.596360        -0.683604
 C        -3.241438        -2.239322        -1.093269
 C        -3.235136        -2.551140        -2.680749
 H         1.705129         0.991151        -0.452816
 H         2.149314        -0.613353        -0.340313
 H         1.282092        -0.087433        -1.806318
 H        -2.774635        -1.096630         1.457703
 H        -2.915450         1.634188         0.466413
 H        -3.176915        -0.024760        -1.435589
 H        -2.755363        -3.014710        -0.475833
 H        -3.965835        -3.274143        -3.102526
 H        -3.292126        -1.562528        -3.307438
 H        -2.288801        -3.011765        -3.028816
