19
Iteration:  1118
 C         1.492182        -0.222249        -0.359785
 C        -0.005144        -0.041802        -0.030050
 C        -1.228549         0.052163         0.133357
 C        -2.642329        -0.076420         0.275725
 O        -3.280890         1.271453         0.381578
 C        -3.281589        -0.911539        -0.877342
 O        -4.455277        -1.634554        -0.717744
 C        -3.259022        -2.357586        -0.833101
 C        -3.052966        -3.182692        -2.074322
 H         2.070027         0.576848         0.067770
 H         1.803967        -1.203373        -0.073947
 H         1.466656        -0.087283        -1.407482
 H        -2.826100        -0.442738         1.293754
 H        -4.199520         1.247199         0.135854
 H        -3.256048        -0.319691        -1.833222
 H        -2.775936        -2.746048         0.084965
 H        -3.542314        -4.147840        -1.889615
 H        -3.355315        -2.611868        -2.935855
 H        -1.988840        -3.443038        -2.162734
