19
Iteration:   634
 C         1.437829         0.045262        -0.241756
 C        -0.038795        -0.094402        -0.021035
 C        -1.250908        -0.042503         0.200492
 C        -2.667921        -0.104760         0.307424
 O        -3.318455         1.121957         0.045946
 C        -3.064404        -0.933679        -0.891907
 O        -4.397715        -1.476766        -0.819845
 C        -3.293793        -2.344119        -0.744427
 C        -3.170645        -3.349985        -1.909960
 H         1.561224         1.123332        -0.494213
 H         2.176419        -0.394896         0.569835
 H         1.787733        -0.395814        -1.189119
 H        -3.108356        -0.475886         1.311470
 H        -3.019472         1.875744         0.566154
 H        -2.792009        -0.553488        -1.930227
 H        -3.098450        -2.757772         0.323412
 H        -3.978943        -4.082390        -1.932135
 H        -3.345284        -2.806570        -2.812730
 H        -2.255024        -3.840054        -1.717873
