19
Iteration:  1956charge 0 multiplicity 1
 C         1.356397         0.060684        -0.543847
 C        -0.085441        -0.159429        -0.216521
 C        -1.139864        -0.146296         0.330736
 C        -2.618414        -0.204785         0.493867
 O        -3.181054         1.154055         0.543309
 C        -3.147125        -0.873939        -0.861079
 O        -4.374767        -1.497852        -0.729071
 C        -3.320167        -2.361319        -0.920328
 C        -3.240909        -3.145484        -2.271955
 H         2.086265        -0.883458        -0.562562
 H         1.544679         0.764056        -1.355929
 H         1.722508         0.649033         0.346195
 H        -2.971120        -0.721312         1.375919
 H        -3.454012         1.403300         1.475513
 H        -3.105832        -0.295022        -1.830812
 H        -3.044643        -3.008922         0.018722
 H        -3.923143        -4.052397        -2.257778
 H        -3.553694        -2.741577        -3.296229
 H        -2.168142        -3.520244        -2.356390
