19
Iteration:  3597charge 0 multiplicity 1
 C         1.584135         0.167049        -0.220308
 C         0.118204         0.040594        -0.136114
 C        -1.060862        -0.053590         0.269646
 C        -2.427595        -0.424354         0.343885
 O        -3.171671         0.732516         0.912163
 C        -3.228960        -0.896738        -0.877294
 O        -4.367219        -1.583180        -0.504262
 C        -3.387894        -2.298906        -1.331755
 C        -3.797000        -2.810214        -2.632049
 H         2.249888        -0.474521         0.512453
 H         1.870552         0.133838        -1.280657
 H         1.927383         1.236937         0.150555
 H        -2.445500        -1.154726         1.130397
 H        -2.836081         1.493201         0.404430
 H        -3.326824        -0.225654        -1.757497
 H        -3.026101        -3.185352        -0.784604
 H        -4.665402        -3.535025        -2.652753
 H        -4.003430        -2.049835        -3.378778
 H        -2.827354        -3.206077        -3.121928
