19
Iteration:  2000charge 0 multiplicity 1
 C         1.441175         0.181665        -0.552656
 C         0.114093         0.023953        -0.014733
 C        -1.051095        -0.247992         0.157162
 C        -2.634105        -0.301025         0.411192
 O        -3.139922         0.970646         0.519976
 C        -3.276587        -0.897974        -0.778604
 O        -4.556259        -1.444148        -0.879280
 C        -3.512037        -2.380791        -0.900463
 C        -3.176458        -3.056314        -2.072783
 H         2.115869        -0.723837        -0.228073
 H         1.412427         0.202134        -1.627536
 H         2.167385         0.968433        -0.386051
 H        -2.772458        -0.899336         1.316300
 H        -3.218981         1.176108         1.501758
 H        -2.794475        -0.287695        -1.587508
 H        -3.600650        -2.960137         0.038923
 H        -3.612704        -4.022245        -2.375462
 H        -3.464287        -2.419989        -2.965839
 H        -2.068958        -3.193410        -2.214107
