19
Iteration:  1888
 C         1.402105        -0.155537        -0.448581
 C         0.091204        -0.026664         0.033504
 C        -1.148463         0.088965         0.089287
 C        -2.609846        -0.106444         0.256528
 O        -3.297380         1.134498         0.538684
 C        -3.371518        -0.870598        -0.815416
 O        -4.426393        -1.715548        -0.445806
 C        -3.217807        -2.406032        -0.989821
 C        -3.204808        -3.041779        -2.383245
 H         1.433797        -0.993078        -1.289224
 H         1.746417         0.825039        -0.771446
 H         2.004392        -0.397170         0.451618
 H        -2.702254        -0.789600         1.114149
 H        -2.614933         1.823496         0.746153
 H        -3.435127        -0.219344        -1.646114
 H        -2.743136        -3.109237        -0.240817
 H        -3.847643        -4.020266        -2.393462
 H        -3.568048        -2.350393        -3.133144
 H        -2.099880        -3.133509        -2.503173
