19
Iteration:   292charge 0 multiplicity 1
 C         1.483363         0.169924        -0.015839
 C         0.083610         0.010684        -0.121348
 C        -1.144685        -0.040713         0.030778
 C        -2.589815        -0.104388         0.161253
 O        -3.225578         1.274744        -0.044576
 C        -3.228600        -1.079352        -0.887159
 O        -4.518379        -1.509989        -0.677598
 C        -3.394693        -2.486239        -0.731037
 C        -3.232901        -3.439754        -1.916004
 H         2.086557        -0.091214        -0.860482
 H         1.727157         1.230362         0.195918
 H         1.779001        -0.361580         0.923750
 H        -2.753389        -0.505124         1.167061
 H        -3.083522         1.814861         0.731823
 H        -2.979510        -0.620798        -1.828631
 H        -3.098044        -3.062434         0.208170
 H        -3.867983        -4.322030        -1.669441
 H        -3.561918        -2.896948        -2.836236
 H        -2.176344        -3.655144        -2.035126
