19
Iteration:  4335
 C         1.345617         0.133116        -0.559822
 C         0.051837        -0.193769         0.057295
 C        -1.145378        -0.225709         0.129570
 C        -2.507542        -0.537890         0.552796
 O        -3.108524         0.661702         1.181364
 C        -3.294881        -0.743230        -0.745731
 O        -4.545197        -1.471873        -0.755121
 C        -3.343753        -2.141389        -1.243643
 C        -3.301441        -2.630896        -2.790336
 H         2.017993         0.753480         0.071749
 H         1.981001        -0.777157        -0.727167
 H         1.382892         0.489642        -1.594521
 H        -2.457563        -1.402019         1.222026
 H        -2.355078         1.228316         1.417806
 H        -3.280021         0.213661        -1.397812
 H        -2.893087        -2.985436        -0.634110
 H        -3.565990        -3.707972        -2.927202
 H        -3.885077        -1.860384        -3.348262
 H        -2.258004        -2.804162        -2.962770
