19
Iteration:  3542charge 0 multiplicity 1
 C         1.565323         0.376421        -0.244644
 C         0.150795        -0.034432        -0.000237
 C        -1.049440        -0.250241         0.123822
 C        -2.463084        -0.469652         0.324254
 O        -3.054318         0.764918         0.868503
 C        -3.254576        -0.898280        -0.906008
 O        -4.524349        -1.537981        -0.588278
 C        -3.483842        -2.310325        -1.152590
 C        -3.674498        -2.837270        -2.648907
 H         2.327328        -0.495581        -0.211168
 H         1.791604         0.883163        -1.211907
 H         1.954359         0.964974         0.664728
 H        -2.576237        -1.249708         1.109269
 H        -2.341395         1.385246         1.130368
 H        -3.178580        -0.279302        -1.780007
 H        -3.052717        -3.014379        -0.447457
 H        -4.373379        -3.688977        -2.802407
 H        -4.201625        -1.982719        -2.953247
 H        -2.689436        -2.962675        -3.199361
