19
Iteration:  1864
 C         1.483033        -0.189760        -0.319437
 C         0.033893         0.015412        -0.197570
 C        -1.179729         0.048667        -0.000146
 C        -2.617230        -0.077967         0.414458
 O        -3.288206         1.140938         0.526787
 C        -3.313357        -0.914825        -0.770059
 O        -4.465205        -1.824766        -0.480958
 C        -3.205630        -2.366256        -0.953726
 C        -3.228517        -2.914258        -2.394074
 H         1.545696        -0.839706        -1.239497
 H         2.048115         0.819946        -0.331866
 H         1.898926        -0.734109         0.552238
 H        -2.607210        -0.631921         1.403819
 H        -2.807054         1.781122         0.026701
 H        -3.408251        -0.224932        -1.600261
 H        -2.673644        -2.975952        -0.291752
 H        -3.583113        -3.922900        -2.004049
 H        -3.956603        -2.559336        -3.117963
 H        -2.189305        -2.864073        -2.759161
