19
Iteration:   378charge 0 multiplicity 1
 C         1.416231         0.063900        -0.018553
 C        -0.064263        -0.037252        -0.223394
 C        -1.245803        -0.000237         0.207536
 C        -2.760540         0.045732         0.245970
 O        -3.198652         1.390904        -0.036911
 C        -3.169118        -0.943472        -0.816412
 O        -4.439765        -1.743853        -0.612530
 C        -3.073216        -2.430720        -0.853645
 C        -3.272045        -3.416872        -2.032031
 H         1.719575        -1.016252         0.008347
 H         1.949702         0.403020        -0.891516
 H         1.737486         0.276590         1.109091
 H        -3.030666        -0.213306         1.287386
 H        -2.284279         1.640676         0.046089
 H        -3.106560        -0.524650        -1.786186
 H        -2.574443        -2.883308         0.057405
 H        -3.792346        -4.326224        -1.594547
 H        -3.990574        -3.001461        -2.760837
 H        -2.502935        -3.946731        -2.499785
