19
Iteration:  1675charge 0 multiplicity 1
 C         1.494871         0.079821        -0.427214
 C         0.101727        -0.138651         0.107767
 C        -1.088682        -0.110069         0.065754
 C        -2.616259        -0.240346         0.242088
 O        -3.233095         1.075843         0.325632
 C        -3.272968        -0.915455        -0.857919
 O        -4.484973        -1.603923        -0.366811
 C        -3.338298        -2.368622        -0.987257
 C        -3.274803        -2.983019        -2.300883
 H         1.571804         1.122891        -0.182272
 H         2.280231        -0.467113         0.231258
 H         1.454101        -0.130753        -1.497955
 H        -2.703009        -0.708707         1.186768
 H        -3.204701         1.352233         1.286900
 H        -3.385373        -0.203916        -1.733170
 H        -3.070039        -3.060026        -0.289636
 H        -3.854719        -3.930083        -2.226273
 H        -3.634797        -2.311607        -3.149783
 H        -2.141706        -2.982020        -2.355940
