19
Iteration:   875
 C         1.581600         0.280308         0.023049
 C         0.115442         0.010000         0.085698
 C        -1.120415         0.033002         0.006728
 C        -2.558744        -0.269691         0.081020
 O        -3.226258         1.065942         0.071948
 C        -3.140268        -1.047041        -0.942348
 O        -4.435829        -1.454393        -0.566514
 C        -3.431874        -2.435594        -0.859921
 C        -3.486268        -3.337095        -2.072708
 H         1.935578        -0.659499        -0.265540
 H         1.607875         1.072130        -0.822082
 H         2.035574         0.600601         0.920994
 H        -2.766941        -0.732799         1.031732
 H        -3.390636         1.196423         0.981462
 H        -3.182257        -0.577750        -1.955732
 H        -2.827825        -2.756215         0.033235
 H        -4.323725        -4.139758        -1.997257
 H        -3.686270        -2.760540        -3.012999
 H        -2.428661        -3.708386        -2.157081
