19
Iteration:   528charge 0 multiplicity 1
 C         1.383191        -0.195784        -0.184741
 C        -0.044144        -0.049980        -0.081658
 C        -1.243806        -0.002589         0.148367
 C        -2.693180        -0.007067         0.147961
 O        -3.343077         1.243903         0.154780
 C        -3.305850        -0.857341        -0.965245
 O        -4.463471        -1.643591        -0.674377
 C        -3.115227        -2.266365        -0.767060
 C        -2.956996        -3.347927        -1.883595
 H         1.928749         0.163091         0.715943
 H         1.713256        -1.214001        -0.288648
 H         1.624059         0.453251        -1.051455
 H        -3.160404        -0.373827         1.080818
 H        -2.713683         1.983142         0.145634
 H        -3.283974        -0.467556        -2.023615
 H        -2.784129        -2.545620         0.200188
 H        -3.496654        -4.285468        -1.562676
 H        -3.452715        -2.956826        -2.830764
 H        -1.877486        -3.509038        -2.333753
