19
Iteration:   400charge 0 multiplicity 1
 C         1.346112        -0.019538        -0.086227
 C        -0.043883        -0.062965        -0.069434
 C        -1.238166         0.007090         0.178714
 C        -2.660687        -0.003152         0.191558
 O        -3.231446         1.381283        -0.041229
 C        -3.268838        -0.896653        -0.879444
 O        -4.356339        -1.783141        -0.565304
 C        -3.139846        -2.467996        -0.793286
 C        -3.236959        -3.300904        -1.999049
 H         1.734682        -0.963038         0.329007
 H         1.809384         0.190902        -1.064149
 H         1.700318         0.686471         0.743729
 H        -2.992117        -0.330091         1.193374
 H        -2.429502         1.886822        -0.382008
 H        -3.379246        -0.406863        -1.816467
 H        -2.602043        -2.908976         0.083568
 H        -3.666833        -4.262618        -2.037483
 H        -3.692570        -2.792910        -2.846864
 H        -2.284812        -3.614751        -2.305872
