19
Iteration:  4505charge 0 multiplicity 1
 C         1.463150         0.032041        -0.406688
 C         0.079850        -0.211180        -0.054989
 C        -1.128128        -0.411676         0.233633
 C        -2.593764        -0.318735         0.505732
 O        -3.146637         0.925977         1.022536
 C        -3.364035        -0.798320        -0.753057
 O        -4.303778        -1.984346        -0.529236
 C        -3.202973        -2.140957        -1.411335
 C        -3.596579        -2.309349        -2.869369
 H         1.667638         0.978465        -0.961504
 H         2.014833         0.160325         0.533429
 H         1.989895        -0.855613        -0.759314
 H        -2.740362        -1.027478         1.320829
 H        -2.515214         1.215695         1.707044
 H        -3.739700         0.018331        -1.328864
 H        -2.324140        -2.607419        -1.118245
 H        -3.868736        -3.324834        -2.989918
 H        -4.441111        -1.744132        -2.951286
 H        -2.832231        -1.889464        -3.535545
