19
Iteration:  3543
 C         1.564749         0.376135        -0.248124
 C         0.153053        -0.039228         0.001862
 C        -1.041521        -0.250613         0.117353
 C        -2.458648        -0.475962         0.316523
 O        -3.063064         0.768347         0.872840
 C        -3.259992        -0.901555        -0.910425
 O        -4.520221        -1.535152        -0.591042
 C        -3.479868        -2.309614        -1.141289
 C        -3.672784        -2.835562        -2.645659
 H         2.290623        -0.457980        -0.179379
 H         1.779240         0.853400        -1.222233
 H         1.990675         0.959768         0.691562
 H        -2.617104        -1.257621         1.149966
 H        -2.387474         1.415134         1.133132
 H        -3.167509        -0.241515        -1.792222
 H        -2.992331        -3.045172        -0.479281
 H        -4.397990        -3.680300        -2.819049
 H        -4.213111        -1.967156        -2.923918
 H        -2.722312        -2.967477        -3.219803
