19
Iteration:  3849
 C         1.334049        -0.161422        -0.632940
 C        -0.013535         0.009896        -0.148295
 C        -1.167347        -0.092815         0.272581
 C        -2.559939        -0.464901         0.575905
 O        -3.219143         0.786989         1.092376
 C        -3.298353        -0.824427        -0.651059
 O        -4.437787        -1.575610        -0.759332
 C        -3.180227        -2.174535        -1.223219
 C        -3.208749        -2.590191        -2.631501
 H         1.812515         0.861631        -1.040760
 H         1.878665        -0.493993         0.274652
 H         1.537862        -0.838038        -1.422453
 H        -2.783804        -1.229398         1.335231
 H        -3.087176         1.545768         0.482258
 H        -3.412737         0.078555        -1.372087
 H        -2.694228        -2.975793        -0.556397
 H        -4.009706        -3.374411        -2.657045
 H        -3.432216        -2.095536        -3.615683
 H        -2.279913        -3.165874        -2.751184
