19
Iteration:  2620
 C         1.509331         0.083427        -0.224852
 C         0.049433        -0.083246        -0.243686
 C        -1.088864        -0.033818         0.027216
 C        -2.529869        -0.274498         0.367804
 O        -3.245148         0.900349         0.655168
 C        -3.332169        -0.882070        -0.863731
 O        -4.457550        -1.637657        -0.491933
 C        -3.301941        -2.363430        -1.034920
 C        -3.381406        -2.836809        -2.456068
 H         1.808579         0.310166         0.884094
 H         1.865276        -0.884005        -0.571902
 H         1.940557         0.934986        -0.741352
 H        -2.475433        -0.923029         1.248213
 H        -2.650290         1.470795         1.181750
 H        -3.407684        -0.405802        -1.791593
 H        -2.781426        -2.984965        -0.433148
 H        -3.899238        -3.819172        -2.560910
 H        -3.939792        -2.038468        -2.979318
 H        -2.426636        -3.065234        -2.986485
