19
Iteration:  2471
 C         1.363624        -0.007379        -0.549608
 C        -0.003888        -0.018552        -0.029780
 C        -1.135729        -0.221414         0.218578
 C        -2.632371        -0.220058         0.379708
 O        -3.069970         1.037940         0.711509
 C        -3.320993        -0.889637        -0.780437
 O        -4.552868        -1.650521        -0.637550
 C        -3.420973        -2.370488        -0.998488
 C        -3.010109        -2.846370        -2.392775
 H         1.682956        -0.996174        -0.726808
 H         1.451986         0.548752        -1.465482
 H         1.921657         0.463929         0.208877
 H        -2.751604        -0.827036         1.320368
 H        -3.405949         1.685152         0.094210
 H        -3.289563        -0.407880        -1.753094
 H        -2.971667        -2.854435        -0.072082
 H        -3.436595        -3.776149        -2.687999
 H        -3.509547        -2.169822        -3.044613
 H        -1.913093        -2.864856        -2.489047
