19
Iteration:  1202
 C         1.562774         0.035809        -0.252961
 C         0.054320        -0.172061        -0.014628
 C        -1.200456        -0.088303         0.056506
 C        -2.633955        -0.086817         0.231617
 O        -3.162200         1.226761         0.252294
 C        -3.365779        -0.853706        -0.929742
 O        -4.491630        -1.699187        -0.515513
 C        -3.259422        -2.350188        -0.878358
 C        -3.181106        -3.137845        -2.138625
 H         1.706518         1.069569        -0.562770
 H         2.065972        -0.038213         0.842466
 H         1.972335        -0.744647        -0.961663
 H        -2.989264        -0.675786         1.131137
 H        -3.982005         1.051906         0.882275
 H        -3.514505        -0.400473        -1.936478
 H        -2.860625        -2.731359         0.034512
 H        -3.749121        -4.071375        -2.065117
 H        -3.874084        -2.641073        -2.856568
 H        -2.135008        -3.297913        -2.471615
