19
Iteration:  1250
 C         1.495853         0.076491        -0.176499
 C         0.065155         0.060956        -0.068367
 C        -1.166212        -0.015918         0.082508
 C        -2.619995        -0.177390         0.278780
 O        -3.162562         1.179937         0.280996
 C        -3.232794        -0.977251        -0.803945
 O        -4.463401        -1.685695        -0.536494
 C        -3.251876        -2.424481        -0.917962
 C        -3.455080        -3.185764        -2.245510
 H         1.750109         0.756702        -1.049206
 H         2.041720         0.421962         0.812769
 H         1.777828        -0.971475        -0.329606
 H        -2.949091        -0.521481         1.313542
 H        -2.523543         1.673420        -0.259060
 H        -3.221364        -0.352778        -1.747238
 H        -2.745975        -2.965574        -0.051567
 H        -4.024590        -4.103286        -2.137834
 H        -3.775937        -2.515936        -3.016659
 H        -2.447244        -3.488036        -2.517542
