19
Iteration:  2354
 C         1.480539        -0.032711        -0.525724
 C         0.098170         0.121716         0.020976
 C        -1.070325         0.013362         0.309280
 C        -2.562034        -0.269212         0.351310
 O        -3.289530         0.940612         0.698627
 C        -3.347445        -0.826601        -0.867570
 O        -4.465059        -1.604661        -0.682037
 C        -3.299318        -2.364154        -1.085960
 C        -3.285182        -3.055509        -2.333790
 H         1.272507        -0.085228        -1.578552
 H         2.136839         0.911715        -0.357685
 H         2.005448        -0.989859        -0.129161
 H        -2.730370        -0.964501         1.189913
 H        -2.609097         1.667649         0.721906
 H        -3.299556        -0.127849        -1.718830
 H        -2.848519        -2.798757        -0.267344
 H        -3.961575        -3.981222        -2.173021
 H        -3.939794        -2.501237        -3.027106
 H        -2.239402        -3.428244        -2.619210
