19
Iteration:   571
 C         1.348235        -0.183749        -0.267673
 C        -0.027418         0.012286         0.100607
 C        -1.196967         0.137221         0.101437
 C        -2.627288        -0.015239         0.190561
 O        -3.306581         1.271721         0.096875
 C        -3.277923        -0.986665        -0.901080
 O        -4.513579        -1.549645        -0.736961
 C        -3.247651        -2.426222        -0.771648
 C        -2.976783        -3.346559        -1.906383
 H         2.033080         0.559598         0.196697
 H         1.780637        -1.125039         0.032616
 H         1.458836         0.051574        -1.308648
 H        -2.659467        -0.626381         1.065178
 H        -3.021736         1.754193         0.935925
 H        -3.035394        -0.581080        -1.924840
 H        -3.006391        -2.742810         0.214705
 H        -3.558547        -4.281395        -1.933644
 H        -3.046305        -2.994635        -2.971861
 H        -1.876702        -3.724063        -1.912345
