19
Iteration:  2928charge 0 multiplicity 1
 C         1.460788         0.231574        -0.467410
 C         0.106393         0.101103         0.012550
 C        -1.020168        -0.227328         0.301594
 C        -2.474631        -0.365244         0.497921
 O        -3.098427         0.784352         0.805735
 C        -3.255473        -0.923003        -0.787223
 O        -4.575716        -1.456269        -0.738496
 C        -3.515577        -2.401645        -1.137084
 C        -3.383169        -2.888295        -2.559978
 H         1.557150        -0.601069        -1.282336
 H         1.772826         1.210623        -0.757516
 H         2.161824         0.095503         0.280542
 H        -2.554906        -1.002098         1.398294
 H        -2.736466         1.527568         0.289668
 H        -3.206768        -0.132839        -1.623644
 H        -3.351491        -3.116781        -0.351225
 H        -4.156827        -3.686096        -2.621507
 H        -3.378093        -2.231689        -3.420379
 H        -2.450926        -3.524019        -2.577850
