19
Iteration:  4333charge 0 multiplicity 1
 C         1.345098         0.118762        -0.565247
 C         0.050482        -0.187258         0.059194
 C        -1.151154        -0.237333         0.125719
 C        -2.504777        -0.527186         0.561393
 O        -3.105847         0.661623         1.182392
 C        -3.285227        -0.748805        -0.765778
 O        -4.533448        -1.469058        -0.750047
 C        -3.363369        -2.146396        -1.250546
 C        -3.303901        -2.628405        -2.794928
 H         2.010175         0.788241         0.073691
 H         2.004826        -0.726388        -0.725197
 H         1.314841         0.576533        -1.525067
 H        -2.493974        -1.413791         1.292087
 H        -2.362502         1.252135         1.441339
 H        -3.256540         0.152797        -1.386270
 H        -2.857267        -2.973121        -0.583303
 H        -3.611193        -3.681747        -2.916402
 H        -3.861112        -1.905595        -3.349250
 H        -2.222948        -2.763700        -2.937438
