19
Iteration:  2078charge 0 multiplicity 1
 C         1.518674         0.255588        -0.318922
 C         0.016895         0.012360        -0.199888
 C        -1.126208        -0.208052         0.159207
 C        -2.556551        -0.260121         0.333598
 O        -3.170810         1.020291         0.747352
 C        -3.135702        -0.890475        -0.928670
 O        -4.427214        -1.538577        -0.806112
 C        -3.302437        -2.360746        -0.893393
 C        -3.528880        -3.194168        -2.225465
 H         2.074708         0.061284         0.648846
 H         2.049569        -0.448672        -0.971733
 H         1.676248         1.244948        -0.737915
 H        -2.859141        -0.970517         1.276508
 H        -3.197615         1.621731        -0.042938
 H        -2.881516        -0.214550        -1.773074
 H        -2.940487        -3.042842        -0.120366
 H        -4.543619        -3.575086        -2.137513
 H        -3.800414        -2.554196        -3.158152
 H        -2.743909        -3.962846        -2.437200
