19
Iteration:  4020
 C         1.486295         0.253989        -0.300073
 C         0.153503        -0.171446        -0.005190
 C        -1.003740        -0.366265         0.276117
 C        -2.520189        -0.497525         0.444425
 O        -3.107941         0.913966         0.759880
 C        -3.362781        -0.921591        -0.800225
 O        -4.424486        -1.744073        -0.493165
 C        -3.376329        -2.240319        -1.335872
 C        -3.612733        -2.518989        -2.749154
 H         1.814401         0.106638        -1.277045
 H         1.663208         1.390938        -0.175931
 H         2.274500        -0.254848         0.497649
 H        -2.831853        -1.147593         1.210305
 H        -2.522083         1.257467         1.462177
 H        -3.581086         0.029326        -1.336300
 H        -2.622106        -2.822324        -0.746184
 H        -4.568122        -3.111425        -3.007929
 H        -3.657377        -1.537780        -3.252985
 H        -2.725950        -2.987711        -3.269648
