19
Iteration:   905charge 0 multiplicity 1
 C         1.548559         0.210283        -0.047702
 C         0.109137         0.187635         0.003163
 C        -1.083187        -0.094084         0.081357
 C        -2.522514        -0.156750         0.143189
 O        -3.102714         1.259592         0.255633
 C        -3.235601        -1.006655        -0.870072
 O        -4.570321        -1.602837        -0.755616
 C        -3.393862        -2.483837        -0.891018
 C        -3.401486        -3.389563        -2.079024
 H         1.765626        -0.878787         0.080852
 H         1.866707         0.593178        -1.083377
 H         2.082423         0.641677         0.837086
 H        -2.771263        -0.530133         1.221980
 H        -4.106362         1.068070         0.394866
 H        -3.156869        -0.610260        -1.881482
 H        -2.979211        -2.862192         0.076554
 H        -4.156327        -4.235892        -1.746307
 H        -3.696249        -2.844485        -2.999447
 H        -2.435688        -3.919450        -2.276988
