19
Iteration:  3400charge 0 multiplicity 1
 C         1.435556         0.125046        -0.472346
 C         0.040773         0.135507         0.016428
 C        -1.113307        -0.156307         0.274560
 C        -2.492022        -0.420545         0.437096
 O        -3.103933         0.752498         0.892461
 C        -3.129283        -0.877192        -0.887039
 O        -4.454591        -1.486631        -0.705116
 C        -3.419279        -2.378017        -1.140019
 C        -3.531827        -2.831554        -2.593996
 H         1.545861         0.055146        -1.455127
 H         1.919539         1.093021        -0.171717
 H         2.076826        -0.716139         0.099863
 H        -2.488474        -1.202335         1.270220
 H        -2.554063         1.226231         1.560010
 H        -3.176751        -0.253266        -1.754593
 H        -2.937009        -2.961929        -0.409186
 H        -4.382302        -3.439694        -2.760151
 H        -3.938310        -1.948740        -3.018276
 H        -2.724320        -3.157070        -3.244180
