19
Iteration:  3266charge 0 multiplicity 1
 C         1.434764         0.011500        -0.433728
 C         0.024855        -0.063419        -0.137741
 C        -1.119227        -0.288633         0.162886
 C        -2.596753        -0.326771         0.473117
 O        -3.059073         1.041014         0.892115
 C        -3.460250        -0.802761        -0.760666
 O        -4.568303        -1.819467        -0.575209
 C        -3.237526        -2.148321        -1.192975
 C        -3.235628        -2.780604        -2.674289
 H         1.799670         1.092653        -0.613226
 H         2.018969        -0.230398         0.469965
 H         1.780686        -0.544971        -1.486874
 H        -2.819573        -0.989460         1.269416
 H        -2.334449         1.279640         1.496939
 H        -3.755958        -0.001039        -1.499777
 H        -2.748500        -2.810898        -0.441536
 H        -3.649583        -3.780678        -2.603863
 H        -3.929342        -2.053669        -3.221487
 H        -2.161857        -2.610734        -2.948912
