19
Iteration:  2251
 C         1.513641         0.286489        -0.198056
 C         0.082118        -0.026028         0.052977
 C        -1.097204        -0.178386        -0.078375
 C        -2.535234        -0.272541         0.224626
 O        -3.006053         1.042866         0.511392
 C        -3.365019        -0.916659        -0.864705
 O        -4.509716        -1.686214        -0.442532
 C        -3.374865        -2.357402        -1.013541
 C        -3.486629        -3.049424        -2.448861
 H         1.454528         1.332581        -0.762863
 H         2.194794         0.317372         0.652323
 H         1.798758        -0.404168        -0.987617
 H        -2.654311        -0.882002         1.061104
 H        -2.636899         1.206553         1.382315
 H        -3.563040        -0.112025        -1.586004
 H        -3.011704        -3.102618        -0.176030
 H        -4.147071        -3.860638        -2.177137
 H        -3.655124        -2.419762        -3.367080
 H        -2.476496        -3.499774        -2.510651
