19
Iteration:  4530
 C         1.433293         0.010143        -0.319413
 C         0.015498        -0.237986        -0.124412
 C        -1.136699        -0.299156         0.264393
 C        -2.610093        -0.408287         0.458717
 O        -3.058049         0.847786         0.965237
 C        -3.447751        -0.837217        -0.697665
 O        -4.254047        -1.943736        -0.411410
 C        -3.238398        -2.107052        -1.443561
 C        -3.572477        -2.270652        -2.904839
 H         1.452097         0.862754        -1.119477
 H         1.926870         0.529411         0.563587
 H         2.074052        -0.810661        -0.516287
 H        -2.749002        -1.143855         1.212600
 H        -2.250139         1.346170         1.137828
 H        -3.778366         0.028258        -1.373555
 H        -2.298502        -2.739013        -1.130680
 H        -3.766884        -3.333833        -3.185602
 H        -4.401480        -1.568480        -3.190857
 H        -2.641579        -1.745315        -3.314112
