19
Iteration:  3342
 C         1.507847         0.085810        -0.495521
 C         0.096846        -0.148235        -0.163059
 C        -1.076651        -0.063006         0.240586
 C        -2.471644        -0.394589         0.409048
 O        -3.367900         0.761382         0.900648
 C        -3.212323        -0.870720        -0.800381
 O        -4.492027        -1.576055        -0.625825
 C        -3.360095        -2.251910        -1.138321
 C        -3.380908        -2.685197        -2.555686
 H         1.884247         0.617047        -1.408975
 H         2.011948         0.454466         0.402042
 H         2.027555        -0.919846        -0.556641
 H        -2.411391        -1.137172         1.335826
 H        -2.764466         1.467910         1.171590
 H        -3.340996        -0.001636        -1.528589
 H        -2.756752        -2.938796        -0.548212
 H        -3.997555        -3.589710        -2.406218
 H        -3.900165        -1.849976        -3.173198
 H        -2.350453        -3.024905        -2.914716
