19
Iteration:  2571charge 0 multiplicity 1
 C         1.531562        -0.070019        -0.387580
 C         0.094984         0.110510         0.025425
 C        -1.122917        -0.078737         0.020442
 C        -2.651913        -0.229043         0.319540
 O        -3.258937         1.018003         0.691401
 C        -3.312261        -0.870931        -0.773402
 O        -4.465649        -1.671148        -0.558925
 C        -3.180810        -2.305138        -1.041062
 C        -3.358182        -2.942476        -2.510501
 H         2.117461        -0.519681         0.362895
 H         1.565691        -0.652101        -1.328639
 H         1.922627         0.964909        -0.514646
 H        -2.673554        -0.971573         1.202903
 H        -2.919069         1.218301         1.582947
 H        -3.608859        -0.181286        -1.635032
 H        -2.705370        -3.128488        -0.364279
 H        -3.957603        -3.872115        -2.447058
 H        -3.822050        -2.221798        -3.195200
 H        -2.442932        -3.431801        -2.892684
