19
Iteration:  4504charge 0 multiplicity 1
 C         1.470340         0.031289        -0.406788
 C         0.079598        -0.206536        -0.050232
 C        -1.129620        -0.405087         0.226583
 C        -2.605522        -0.321326         0.512891
 O        -3.143927         0.922506         1.017085
 C        -3.367008        -0.797528        -0.737899
 O        -4.301509        -1.979704        -0.534926
 C        -3.195530        -2.133365        -1.416004
 C        -3.601277        -2.315996        -2.868685
 H         1.648416         0.942546        -0.945065
 H         2.008367         0.163074         0.520715
 H         2.017904        -0.863072        -0.810690
 H        -2.756540        -1.056667         1.348043
 H        -2.523102         1.192776         1.710306
 H        -3.692977        -0.006555        -1.351330
 H        -2.350063        -2.589543        -1.129318
 H        -3.863159        -3.328155        -3.026028
 H        -4.447946        -1.740108        -2.930760
 H        -2.831153        -1.923744        -3.482333
