19
Iteration:  2874charge 0 multiplicity 1
 C         1.513260         0.264367        -0.315979
 C         0.073891        -0.086491        -0.276507
 C        -1.079553        -0.189204         0.148528
 C        -2.490802        -0.414293         0.447415
 O        -3.265235         0.770295         1.009360
 C        -3.116096        -0.910990        -0.935284
 O        -4.479547        -1.308185        -0.810062
 C        -3.397721        -2.328279        -1.034775
 C        -3.472762        -2.996924        -2.426336
 H         1.940159         0.224567        -1.410423
 H         1.713497         1.266260         0.079629
 H         2.143470        -0.395633         0.200485
 H        -2.540791        -1.101899         1.402481
 H        -3.345664         1.502176         0.362241
 H        -2.783807        -0.325113        -1.867615
 H        -3.243367        -3.022529        -0.205660
 H        -4.142359        -3.927372        -2.411564
 H        -3.903090        -2.204549        -3.120320
 H        -2.395707        -3.352409        -2.772965
