19
Iteration:  3616
 C         1.583038         0.173040        -0.248507
 C         0.180504         0.122049        -0.100821
 C        -0.999777        -0.097015         0.155746
 C        -2.477801        -0.329482         0.421415
 O        -3.163741         0.776257         0.998168
 C        -3.168749        -0.925396        -0.917361
 O        -4.464352        -1.657412        -0.569364
 C        -3.402866        -2.346979        -1.189467
 C        -3.754972        -2.793404        -2.753813
 H         1.945306        -0.498307         0.607441
 H         1.885506        -0.295758        -1.184379
 H         2.062686         0.989866        -0.036603
 H        -2.533828        -1.141482         1.115552
 H        -3.042897         1.456834         0.310803
 H        -3.485529        -0.193932        -1.583473
 H        -2.822609        -2.998361        -0.615941
 H        -4.597917        -3.442868        -2.656966
 H        -4.101213        -1.948110        -3.271883
 H        -2.875239        -3.352145        -3.213015
