19
Iteration:  4071
 C         1.613292         0.267481        -0.120711
 C         0.116213        -0.026400        -0.018790
 C        -1.078133        -0.386565        -0.006296
 C        -2.496542        -0.385410         0.450195
 O        -3.073184         0.799654         0.860728
 C        -3.333205        -0.874870        -0.746034
 O        -4.420139        -1.705605        -0.584030
 C        -3.277165        -2.272465        -1.322949
 C        -3.780647        -2.581002        -2.759189
 H         2.094632        -0.392978        -0.876221
 H         1.885881         1.177426        -0.601309
 H         2.023533         0.189814         0.828229
 H        -2.630717        -1.248872         1.215007
 H        -2.628209         1.256107         1.605994
 H        -3.372606        -0.113037        -1.459532
 H        -3.007740        -3.081428        -0.707396
 H        -4.476989        -3.418563        -2.683694
 H        -4.243675        -1.766324        -3.238801
 H        -3.018752        -2.893489        -3.495533
