19
Iteration:  1484charge 0 multiplicity 1
 C         1.433531         0.302811        -0.394890
 C         0.031085         0.170406        -0.137535
 C        -1.040406        -0.210916         0.282928
 C        -2.532322        -0.286940         0.402313
 O        -3.155729         0.983678         0.489943
 C        -2.972120        -1.071675        -0.872246
 O        -4.447049        -1.371717        -0.872054
 C        -3.422067        -2.446176        -0.815006
 C        -3.571257        -3.211386        -2.138589
 H         1.990032        -0.628702         0.018057
 H         1.765243         0.136195        -1.389599
 H         1.962575         1.226557         0.042346
 H        -2.662695        -0.886017         1.316904
 H        -3.758482         1.346241        -0.114831
 H        -2.555648        -0.645069        -1.754377
 H        -3.290511        -2.980954         0.168360
 H        -4.501438        -3.785970        -2.025258
 H        -3.674399        -2.433060        -2.881134
 H        -2.849829        -3.967350        -2.473821
