19
Iteration:   646charge 0 multiplicity 1
 C         1.399353         0.055775        -0.287787
 C         0.035131        -0.048972         0.118660
 C        -1.157125         0.054395         0.255796
 C        -2.630598        -0.092768         0.212196
 O        -3.274160         1.164923         0.103386
 C        -3.154682        -0.976296        -1.012188
 O        -4.473888        -1.443947        -0.793847
 C        -3.363260        -2.492245        -0.761669
 C        -3.191763        -3.402343        -1.903759
 H         1.557858         1.136719        -0.521168
 H         2.112711        -0.022363         0.626749
 H         1.705822        -0.549104        -1.147352
 H        -2.985254        -0.685667         1.134985
 H        -2.687986         1.733537         0.584074
 H        -2.821233        -0.427016        -1.962586
 H        -3.178542        -2.872776         0.276495
 H        -3.827837        -4.253318        -2.004948
 H        -3.083778        -2.847025        -2.810286
 H        -2.187435        -3.791088        -1.881340
