19
Iteration:  1929
 C         1.368491        -0.027808        -0.517087
 C        -0.041990        -0.097865        -0.097739
 C        -1.175846        -0.170763         0.257497
 C        -2.611352        -0.170771         0.403841
 O        -3.253768         1.080376         0.481753
 C        -3.267818        -0.816448        -0.848316
 O        -4.348000        -1.600603        -0.670350
 C        -3.094816        -2.259080        -0.958318
 C        -3.282658        -3.047574        -2.211703
 H         1.727991        -0.938102        -0.873968
 H         1.574702         0.822889        -1.191875
 H         2.101874         0.172357         0.253020
 H        -2.933626        -0.773787         1.315951
 H        -3.346433         1.404581         1.413205
 H        -3.374320        -0.261653        -1.759358
 H        -2.749811        -2.766984        -0.155630
 H        -4.111149        -3.718511        -1.955502
 H        -3.594395        -2.695294        -3.154266
 H        -2.499527        -3.714435        -2.496121
