19
Iteration:  4216
 C         1.521657         0.285325        -0.348952
 C         0.114611        -0.061601         0.044656
 C        -1.048157        -0.295630         0.205532
 C        -2.465173        -0.535597         0.485986
 O        -3.059493         0.597388         0.937332
 C        -3.235998        -0.827029        -0.793829
 O        -4.562663        -1.528709        -0.759415
 C        -3.384558        -2.186467        -1.238237
 C        -3.586467        -2.612327        -2.683439
 H         2.446141        -0.184276         0.074978
 H         1.626820         0.033517        -1.467650
 H         1.657391         1.486750        -0.346351
 H        -2.548547        -1.427065         1.217498
 H        -2.611947         0.993911         1.695903
 H        -3.449646         0.056718        -1.489280
 H        -3.162880        -3.015216        -0.578482
 H        -4.633911        -3.050900        -2.938124
 H        -3.600203        -1.677415        -3.367268
 H        -2.865295        -3.413352        -2.976004
