19
Iteration:   409charge 0 multiplicity 1
 C         1.361034        -0.012991        -0.096847
 C        -0.035160        -0.058278         0.052219
 C        -1.251834        -0.022872         0.117045
 C        -2.672462        -0.004345         0.110777
 O        -3.249123         1.348381        -0.026636
 C        -3.257083        -0.961504        -0.900887
 O        -4.385051        -1.726270        -0.460218
 C        -3.195610        -2.413169        -0.781244
 C        -3.141853        -3.321236        -2.081385
 H         1.695179        -1.046996         0.186327
 H         1.674015        -0.068561        -1.122631
 H         1.863452         0.789710         0.536955
 H        -2.966432        -0.331666         1.125734
 H        -2.457873         1.797753        -0.461017
 H        -3.398651        -0.478124        -1.885041
 H        -2.646819        -2.777435         0.060966
 H        -3.798303        -4.143569        -1.859325
 H        -3.527229        -2.665647        -2.864498
 H        -2.091196        -3.371884        -2.252858
