19
Iteration:  4892charge 0 multiplicity 1
 C         1.492614         0.269412        -0.346210
 C         0.147996        -0.123869         0.035117
 C        -1.071773        -0.222225         0.175474
 C        -2.486005        -0.607439         0.476938
 O        -3.105715         0.439445         1.242823
 C        -3.156050        -0.852158        -0.816236
 O        -4.467777        -1.384147        -0.676231
 C        -3.485286        -2.226836        -1.327901
 C        -3.598168        -2.510570        -2.892791
 H         2.358210         0.112034         0.302676
 H         1.557038        -0.229491        -1.325207
 H         1.596991         1.270795        -0.752988
 H        -2.470440        -1.457515         1.060362
 H        -2.823565         1.239986         0.744970
 H        -2.961603        -0.096143        -1.600596
 H        -3.266558        -3.082872        -0.748758
 H        -4.597251        -2.947600        -3.049267
 H        -3.748146        -1.423587        -3.276169
 H        -2.694268        -2.889617        -3.322286
