19
Iteration:  1683charge 0 multiplicity 1
 C         1.439739         0.074284        -0.411347
 C         0.151338        -0.176452         0.069075
 C        -1.120466        -0.070522         0.146567
 C        -2.564905        -0.169667         0.268855
 O        -3.237179         1.066801         0.278924
 C        -3.294148        -0.960309        -0.772560
 O        -4.461902        -1.640923        -0.414281
 C        -3.356586        -2.367408        -0.983920
 C        -3.314489        -2.933808        -2.323155
 H         1.734777         1.185694        -0.293578
 H         2.316535        -0.349845         0.140497
 H         1.736679        -0.302689        -1.425491
 H        -2.698005        -0.800752         1.243847
 H        -3.273363         1.496913         1.185282
 H        -3.563509        -0.309847        -1.611594
 H        -2.781686        -2.903797        -0.157323
 H        -3.745465        -3.940028        -2.386026
 H        -3.694231        -2.408018        -3.182996
 H        -2.245511        -3.119323        -2.549236
