19
Iteration:  2128charge 0 multiplicity 1
 C         1.607508         0.251998        -0.260821
 C         0.213402         0.124263         0.091124
 C        -1.003532        -0.015379        -0.044380
 C        -2.460531        -0.274130         0.282488
 O        -3.197058         0.908099         0.563362
 C        -3.203842        -1.060346        -0.891291
 O        -4.573674        -1.489951        -0.523117
 C        -3.479730        -2.449196        -0.960399
 C        -3.550979        -3.080287        -2.373207
 H         2.165013         0.660683         0.670202
 H         2.000522        -0.783914        -0.344579
 H         1.719832         0.903328        -1.165512
 H        -2.653274        -0.928746         1.177225
 H        -3.503505         1.066152        -0.316509
 H        -3.330980        -0.407511        -1.797492
 H        -3.040796        -3.304007        -0.285452
 H        -4.157122        -4.032273        -2.384416
 H        -3.938730        -2.353023        -3.082963
 H        -2.503887        -3.350889        -2.507105
