19
Iteration:  4283
 C         1.322636         0.231745        -0.475132
 C        -0.012483        -0.095773        -0.173475
 C        -1.063289        -0.427520         0.405385
 C        -2.522778        -0.563301         0.616784
 O        -3.070125         0.649528         0.962261
 C        -3.149915        -0.866480        -0.705459
 O        -4.521607        -1.439188        -0.813099
 C        -3.335451        -2.199676        -1.281065
 C        -3.415358        -2.514114        -2.662673
 H         2.085700         0.422091         0.256224
 H         1.831067        -0.627412        -1.043896
 H         1.348248         1.260998        -1.109093
 H        -2.723895        -1.397794         1.333055
 H        -2.340760         1.156127         1.349003
 H        -2.998994         0.018982        -1.428466
 H        -3.241422        -3.146227        -0.777667
 H        -4.276810        -3.265850        -2.666134
 H        -3.822337        -1.620997        -3.303454
 H        -2.382946        -2.841316        -2.955264
