19
Iteration:  3748
 C         1.307351         0.087786        -0.597548
 C        -0.008187        -0.016721        -0.026683
 C        -1.146535        -0.396870         0.317206
 C        -2.662833        -0.327381         0.480350
 O        -3.015817         0.899979         1.050633
 C        -3.297494        -0.818919        -0.826004
 O        -4.422567        -1.619039        -0.654258
 C        -3.367634        -2.271745        -1.225098
 C        -3.262254        -2.703268        -2.648415
 H         1.998665         0.712812         0.096502
 H         1.859618        -0.863404        -0.512475
 H         1.415610         0.368368        -1.575199
 H        -2.869750        -1.098139         1.231536
 H        -2.284906         1.528960         1.108935
 H        -3.269588        -0.164913        -1.711419
 H        -3.027566        -3.121689        -0.627839
 H        -3.559116        -3.725230        -2.933518
 H        -3.848425        -2.040734        -3.235866
 H        -2.261342        -2.615090        -3.124792
