19
Iteration:  1071charge 0 multiplicity 1
 C         1.393722        -0.158989        -0.418780
 C        -0.035405        -0.166134        -0.090013
 C        -1.200954         0.062673         0.245265
 C        -2.644348        -0.090387         0.328183
 O        -3.432732         1.145128         0.265360
 C        -3.106563        -0.842596        -0.886751
 O        -4.424944        -1.540670        -0.721023
 C        -3.201274        -2.313377        -0.781950
 C        -3.066060        -3.211013        -2.044309
 H         1.844357         0.179319         0.478758
 H         1.522296        -1.281909        -0.546344
 H         1.607050         0.502330        -1.247351
 H        -3.159332        -0.729825         1.036043
 H        -2.994308         1.816613         0.773760
 H        -2.949431        -0.356463        -1.862539
 H        -2.981928        -2.925187         0.075827
 H        -3.713140        -4.036971        -2.024191
 H        -3.135741        -2.476096        -2.804969
 H        -2.103124        -3.596621        -2.098810
