19
Iteration:  4723
 C         1.484688         0.022158        -0.503588
 C        -0.009872        -0.073578        -0.217929
 C        -1.123772        -0.160653         0.254478
 C        -2.528382        -0.551089         0.534549
 O        -3.219866         0.508770         1.281001
 C        -3.189540        -0.744239        -0.800009
 O        -4.485667        -1.545531        -0.760136
 C        -3.373065        -2.192399        -1.183742
 C        -3.374586        -2.381338        -2.797638
 H         1.720853        -0.971263        -0.883325
 H         1.713372         0.812636        -1.263924
 H         2.225106         0.255321         0.328394
 H        -2.465861        -1.483378         1.069878
 H        -2.572659         1.226744         1.272461
 H        -3.189439         0.169821        -1.487047
 H        -2.907114        -3.069549        -0.695399
 H        -4.178793        -3.108631        -2.982377
 H        -3.486083        -1.410592        -3.242084
 H        -2.315208        -2.758224        -3.140265
