19
Iteration:  4120
 C         1.619538         0.189682        -0.093906
 C         0.174753         0.041919        -0.001719
 C        -1.031434        -0.157100        -0.045693
 C        -2.387737        -0.473003         0.243299
 O        -3.138027         0.652622         1.053711
 C        -3.304968        -0.898499        -0.958330
 O        -4.553727        -1.517951        -0.413745
 C        -3.480472        -2.304589        -1.306247
 C        -3.660716        -2.684305        -2.803829
 H         2.166032        -0.717344        -0.341858
 H         1.950759         0.835109        -0.984387
 H         2.016791         0.634368         0.913504
 H        -2.417390        -1.275845         0.966390
 H        -2.475519         1.252385         1.442079
 H        -3.490953         0.040090        -1.587272
 H        -2.758513        -2.928819        -0.709544
 H        -3.885898        -3.784185        -2.857914
 H        -4.549859        -2.159456        -3.322062
 H        -2.748270        -2.514718        -3.423823
