19
Iteration:  4460charge 0 multiplicity 1
 C         1.481476        -0.070423        -0.423414
 C         0.084503        -0.066669        -0.016719
 C        -1.126209        -0.228282         0.217216
 C        -2.556422        -0.403262         0.467387
 O        -3.171438         0.781577         0.988342
 C        -3.378164        -0.782667        -0.747414
 O        -4.335750        -1.883517        -0.478106
 C        -3.257263        -2.129251        -1.368396
 C        -3.525198        -2.315305        -2.852024
 H         1.647804         0.943726        -0.731339
 H         2.259313        -0.294969         0.290373
 H         1.638037        -0.798414        -1.263764
 H        -2.735667        -1.212521         1.159630
 H        -2.742781         1.030203         1.816679
 H        -3.751926         0.003892        -1.322281
 H        -2.601035        -2.810513        -1.007617
 H        -3.855803        -3.307964        -3.044048
 H        -4.024760        -1.642945        -3.458058
 H        -2.498115        -2.229202        -3.181552
