19
Iteration:  1957charge 0 multiplicity 1
 C         1.361655         0.065077        -0.541834
 C        -0.091600        -0.160720        -0.211842
 C        -1.144171        -0.145030         0.328728
 C        -2.611673        -0.200641         0.488093
 O        -3.175929         1.150985         0.546221
 C        -3.152778        -0.876042        -0.852451
 O        -4.371078        -1.490401        -0.731644
 C        -3.333105        -2.368453        -0.924946
 C        -3.233977        -3.148632        -2.269253
 H         2.073441        -0.891176        -0.566326
 H         1.540447         0.765912        -1.403479
 H         1.711875         0.665705         0.350988
 H        -2.963822        -0.745988         1.342872
 H        -3.455257         1.414437         1.470683
 H        -3.101803        -0.320422        -1.853490
 H        -3.050442        -3.066360         0.033718
 H        -3.919638        -4.042019        -2.251201
 H        -3.572590        -2.711182        -3.298073
 H        -2.148593        -3.498831        -2.341440
