19
Iteration:  1270charge 0 multiplicity 1
 C         1.507674         0.100057        -0.188716
 C         0.061294         0.129974        -0.133098
 C        -1.065339        -0.086705         0.212217
 C        -2.617527        -0.154384         0.268105
 O        -3.171878         1.167518         0.210063
 C        -3.206188        -0.981915        -0.908974
 O        -4.445821        -1.685644        -0.535444
 C        -3.328256        -2.486138        -0.879536
 C        -3.450679        -3.159012        -2.238729
 H         2.007244         0.568078        -1.021583
 H         1.809653         0.705105         0.782612
 H         1.809184        -0.940745        -0.069327
 H        -2.759985        -0.579516         1.259149
 H        -2.829065         1.758662         0.850421
 H        -3.344541        -0.337723        -1.796073
 H        -2.913167        -3.064181        -0.060689
 H        -4.223784        -3.890003        -2.046783
 H        -3.955642        -2.486744        -2.882051
 H        -2.634765        -3.665450        -2.677477
