19
Iteration:  3293charge 0 multiplicity 1
 C         1.412802        -0.018088        -0.427971
 C        -0.029604         0.003109        -0.094687
 C        -1.189461        -0.205480         0.079124
 C        -2.605523        -0.339945         0.480029
 O        -3.041143         0.918505         0.942857
 C        -3.339928        -0.767901        -0.825053
 O        -4.515109        -1.759485        -0.619829
 C        -3.230853        -2.142953        -1.157210
 C        -3.303123        -2.787380        -2.621581
 H         1.624474         0.899192        -0.989187
 H         2.099883         0.013483         0.437675
 H         1.697701        -0.741845        -1.158877
 H        -2.753130        -1.101272         1.279895
 H        -2.366229         1.267367         1.556981
 H        -3.524621        -0.074522        -1.605089
 H        -2.644206        -2.799562        -0.479243
 H        -3.816886        -3.771830        -2.517727
 H        -3.810152        -2.103535        -3.225998
 H        -2.292681        -2.917229        -2.927851
