19
Iteration:  2748charge 0 multiplicity 1
 C         1.447046         0.333783        -0.241785
 C         0.056616        -0.091526        -0.222687
 C        -1.047549        -0.257867         0.240370
 C        -2.497461        -0.358763         0.372389
 O        -3.125592         0.852640         0.675469
 C        -3.179716        -0.958594        -0.809763
 O        -4.455109        -1.475986        -0.616116
 C        -3.414278        -2.424110        -0.990753
 C        -3.505355        -2.842510        -2.529491
 H         1.499967         1.386522        -0.241813
 H         1.976460         0.029576         0.725298
 H         2.149278        -0.070579        -1.096434
 H        -2.839457        -1.101727         1.123616
 H        -2.771901         1.575851         0.126747
 H        -3.194022        -0.450667        -1.748834
 H        -3.175851        -3.334874        -0.316770
 H        -4.316712        -3.506555        -2.513709
 H        -3.843900        -1.998223        -3.170738
 H        -2.609402        -3.250858        -2.926580
