19
Iteration:  2585
 C         1.550505        -0.001350        -0.314044
 C         0.114420         0.055026        -0.031766
 C        -1.121289        -0.065449        -0.040108
 C        -2.475773        -0.141429         0.395807
 O        -3.290934         0.982606         0.701959
 C        -3.365912        -0.866619        -0.825849
 O        -4.473829        -1.731854        -0.511328
 C        -3.347010        -2.361247        -1.131867
 C        -3.329611        -2.943382        -2.485851
 H         2.061933        -0.421918         0.500886
 H         1.682832        -0.814543        -1.086503
 H         2.117232         0.871093        -0.789970
 H        -2.521428        -0.860464         1.242033
 H        -3.171932         1.407985         1.577699
 H        -3.366542        -0.216189        -1.689072
 H        -2.901057        -2.888744        -0.306630
 H        -4.078619        -3.781727        -2.526865
 H        -3.710398        -2.201282        -3.265174
 H        -2.294224        -3.095814        -2.777077
