19
Iteration:  3721charge 0 multiplicity 1
 C         1.372809         0.155905        -0.438356
 C        -0.007837        -0.115287        -0.111403
 C        -1.192286        -0.284127         0.140412
 C        -2.653481        -0.415575         0.522759
 O        -2.986679         0.832369         1.014174
 C        -3.283685        -0.773121        -0.769388
 O        -4.517185        -1.615278        -0.700159
 C        -3.280568        -2.221950        -1.213731
 C        -3.309829        -2.742244        -2.608734
 H         1.870234         0.506316         0.419043
 H         1.927279        -0.792089        -0.704999
 H         1.707314         0.724185        -1.436808
 H        -2.713513        -1.209442         1.321079
 H        -2.269229         1.470299         0.914816
 H        -3.221845        -0.082161        -1.636727
 H        -2.772339        -2.834969        -0.404736
 H        -3.635384        -3.796932        -2.673293
 H        -4.168354        -2.110736        -3.056030
 H        -2.517186        -2.484413        -3.288138
