19
Iteration:  2196charge 0 multiplicity 1
 C         1.536193         0.320763        -0.125970
 C         0.060858         0.035503        -0.199771
 C        -1.108202        -0.206894         0.093848
 C        -2.495580        -0.289933         0.339751
 O        -3.072800         1.022637         0.549626
 C        -3.249736        -0.920988        -1.012928
 O        -4.436270        -1.621924        -0.453180
 C        -3.361371        -2.376058        -1.057157
 C        -3.671442        -3.171309        -2.398069
 H         1.735767         1.397819         0.376645
 H         1.983327        -0.301631         0.650045
 H         2.190477         0.279968        -0.998069
 H        -2.660442        -0.950827         1.212358
 H        -2.387411         1.747316         0.540645
 H        -3.384131        -0.040798        -1.668378
 H        -2.741483        -2.863460        -0.301026
 H        -4.145623        -4.153722        -2.280224
 H        -4.361002        -2.651035        -3.124291
 H        -2.721494        -3.455875        -2.907770
