19
Iteration:  1180charge 0 multiplicity 1
 C         1.437995        -0.011629        -0.209183
 C        -0.055363        -0.109391        -0.166509
 C        -1.237492        -0.076769         0.055694
 C        -2.624818        -0.108715         0.264033
 O        -3.215267         1.210486         0.268111
 C        -3.251011        -0.896540        -0.881621
 O        -4.497684        -1.628660        -0.572795
 C        -3.233538        -2.356124        -0.874458
 C        -3.120634        -3.143591        -2.099966
 H         1.943739         0.947009        -0.313197
 H         1.917790        -0.596892         0.724553
 H         1.825093        -0.717320        -1.017562
 H        -2.848667        -0.782312         1.134549
 H        -2.966005         1.523245         1.107906
 H        -3.465268        -0.295672        -1.776984
 H        -2.584461        -2.674419        -0.086560
 H        -3.552579        -4.123226        -1.874964
 H        -3.830875        -2.756096        -2.868775
 H        -2.130373        -3.273209        -2.503578
