19
Iteration:  2974charge 0 multiplicity 1
 C         1.307754         0.238501        -0.388073
 C        -0.000683        -0.202418        -0.070567
 C        -1.155374        -0.245713         0.253686
 C        -2.549198        -0.347244         0.464501
 O        -3.082801         0.922133         0.784753
 C        -3.137855        -0.843899        -0.816408
 O        -4.436547        -1.575411        -0.700946
 C        -3.205005        -2.317162        -1.140356
 C        -3.531190        -2.859598        -2.484314
 H         1.878480        -0.660346        -0.824026
 H         1.303357         1.076050        -1.066938
 H         1.833289         0.696051         0.324244
 H        -2.775777        -1.178302         1.193737
 H        -2.344575         1.546994         0.841484
 H        -3.084804        -0.350631        -1.811003
 H        -2.695532        -2.935224        -0.450415
 H        -4.419393        -3.502402        -2.595807
 H        -3.634237        -1.873312        -3.065700
 H        -2.600952        -3.328077        -2.975203
