19
Iteration:  3941charge 0 multiplicity 1
 C         1.460058         0.002864        -0.408365
 C         0.063507        -0.029002        -0.224612
 C        -1.086596        -0.330742         0.135878
 C        -2.580975        -0.408545         0.552956
 O        -3.244139         0.819985         1.055043
 C        -3.319296        -0.777799        -0.800816
 O        -4.495213        -1.591646        -0.606685
 C        -3.265062        -2.220054        -1.192756
 C        -3.320987        -2.638446        -2.755984
 H         1.662313         0.382418        -1.329354
 H         1.920807         0.643374         0.331724
 H         2.126765        -0.934200        -0.411835
 H        -2.637234        -1.153013         1.279473
 H        -2.559959         1.474891         1.252402
 H        -3.447382         0.049844        -1.424137
 H        -2.767588        -2.776709        -0.451620
 H        -3.451760        -3.759054        -2.801725
 H        -4.194896        -2.221381        -3.274210
 H        -2.346724        -2.431198        -3.283963
