19
Iteration:  3935
 C         1.508056         0.005537        -0.411239
 C         0.048772        -0.089374        -0.223355
 C        -1.136247        -0.283018         0.085991
 C        -2.618840        -0.384367         0.583533
 O        -3.229444         0.744784         1.040591
 C        -3.299788        -0.754262        -0.747631
 O        -4.468085        -1.582233        -0.634229
 C        -3.291378        -2.168304        -1.197036
 C        -3.290475        -2.660128        -2.736865
 H         1.745615         0.545735        -1.496038
 H         2.023973         0.653386         0.348657
 H         1.876248        -0.994061        -0.466126
 H        -2.853809        -1.146065         1.464452
 H        -2.668000         1.514919         1.218725
 H        -3.473682         0.101855        -1.504857
 H        -2.671219        -2.789118        -0.436131
 H        -3.369632        -3.737237        -2.597181
 H        -4.169038        -2.191504        -3.181738
 H        -2.435984        -2.446688        -3.357600
