19
Iteration:   833
 C         1.603349         0.358411         0.107140
 C         0.173339         0.080939        -0.032384
 C        -1.066579        -0.026976         0.000023
 C        -2.540045        -0.263576         0.263428
 O        -3.302037         1.115079         0.106539
 C        -3.127968        -1.014192        -0.983598
 O        -4.465444        -1.525817        -0.653006
 C        -3.335513        -2.558477        -0.888934
 C        -3.644783        -3.341099        -2.057310
 H         2.173894        -0.394902        -0.445428
 H         1.887034         1.390660        -0.206578
 H         2.009781         0.075588         1.065584
 H        -2.736213        -0.598625         1.257846
 H        -2.687016         1.832849        -0.212995
 H        -2.894140        -0.577412        -1.993513
 H        -3.097663        -3.150785         0.001624
 H        -4.320218        -3.976260        -1.604516
 H        -4.077664        -2.801432        -2.865519
 H        -2.831475        -3.925325        -2.450816
