19
Iteration:  3167
 C         1.419225        -0.109038        -0.434487
 C         0.055941         0.038778         0.043546
 C        -1.153126        -0.052300         0.278609
 C        -2.561158        -0.342732         0.400762
 O        -3.135965         1.046595         0.694822
 C        -3.327705        -0.847188        -0.698497
 O        -4.340047        -1.863081        -0.480627
 C        -3.261742        -2.266617        -1.250214
 C        -3.470348        -2.692503        -2.725337
 H         2.023050         0.386501         0.328562
 H         1.814787        -1.118039        -0.522512
 H         1.636478         0.390928        -1.528819
 H        -2.655142        -1.061851         1.285991
 H        -2.989425         1.326658         1.605087
 H        -3.776779        -0.049866        -1.353303
 H        -2.463749        -2.937449        -0.726304
 H        -4.067626        -3.637546        -2.694283
 H        -3.984242        -1.981280        -3.388848
 H        -2.439333        -2.882135        -3.072973
