19
Iteration:  2648
 C         1.547576         0.181194        -0.214485
 C         0.024575        -0.022583        -0.157330
 C        -1.130363        -0.289946         0.001321
 C        -2.641411        -0.290961         0.399949
 O        -3.180227         0.940626         0.703272
 C        -3.265163        -0.845866        -0.853784
 O        -4.400366        -1.628369        -0.532542
 C        -3.279548        -2.308277        -1.100807
 C        -3.474086        -2.899029        -2.473885
 H         1.860722         0.754351         0.649714
 H         1.964173        -0.855192        -0.311034
 H         2.021824         0.812967        -1.025990
 H        -2.704345        -0.944963         1.308836
 H        -2.493787         1.622692         0.738240
 H        -3.293961        -0.310855        -1.854884
 H        -2.815997        -3.158238        -0.400673
 H        -3.912208        -3.847059        -2.172949
 H        -4.211617        -2.254559        -3.011409
 H        -2.615883        -2.997497        -3.137607
