19
Iteration:  1815charge 0 multiplicity 1
 C         1.400942        -0.100209        -0.230320
 C        -0.040741        -0.206321        -0.236432
 C        -1.265955        -0.056453        -0.016849
 C        -2.624113        -0.114141         0.235413
 O        -3.154900         1.201220         0.534141
 C        -3.352296        -0.890993        -0.793175
 O        -4.314949        -1.818767        -0.339726
 C        -3.160312        -2.269577        -1.020202
 C        -3.246404        -2.925981        -2.368991
 H         1.817258        -0.164465        -1.226123
 H         1.512278         0.738872         0.433281
 H         1.879450        -0.950778         0.326082
 H        -2.641803        -0.652435         1.217217
 H        -3.633096         1.605887        -0.250863
 H        -3.718356        -0.186223        -1.631102
 H        -2.438733        -2.644514        -0.172319
 H        -3.509356        -3.919486        -2.161935
 H        -4.086029        -2.504163        -2.967633
 H        -2.300987        -2.564217        -2.784543
