19
Iteration:  2601
 C         1.567763        -0.028929        -0.260178
 C         0.111557        -0.006207        -0.180446
 C        -1.095522         0.073799         0.012670
 C        -2.562746        -0.295742         0.305007
 O        -3.277781         0.977472         0.672598
 C        -3.272654        -0.921364        -0.777766
 O        -4.527565        -1.700484        -0.491952
 C        -3.337599        -2.337193        -1.063586
 C        -3.376691        -2.887091        -2.525119
 H         2.092710         0.122452         0.795682
 H         2.013422        -0.747418        -0.935177
 H         1.839791         0.936989        -0.640626
 H        -2.583525        -0.952632         1.175651
 H        -2.861489         1.306862         1.496396
 H        -3.555375        -0.102133        -1.487531
 H        -2.800886        -2.983936        -0.296544
 H        -3.879903        -3.861393        -2.487328
 H        -3.642839        -2.169970        -3.261991
 H        -2.264538        -3.034123        -2.656532
