19
Iteration:  3168
 C         1.427307        -0.102497        -0.433666
 C         0.052542         0.034629         0.037635
 C        -1.153563        -0.057912         0.285732
 C        -2.566767        -0.337806         0.395373
 O        -3.137772         1.045243         0.693537
 C        -3.329118        -0.853423        -0.693878
 O        -4.342301        -1.857304        -0.478275
 C        -3.254876        -2.268835        -1.251744
 C        -3.470781        -2.691739        -2.727326
 H         2.025191         0.357870         0.266531
 H         1.816779        -1.119687        -0.486579
 H         1.636439         0.392164        -1.520817
 H        -2.620659        -1.043595         1.331624
 H        -2.991672         1.336875         1.600095
 H        -3.794471        -0.048504        -1.346314
 H        -2.497910        -2.980409        -0.735481
 H        -4.029402        -3.602751        -2.700224
 H        -3.973794        -1.994065        -3.403468
 H        -2.451608        -2.860923        -3.062829
