19
Iteration:  1259charge 0 multiplicity 1
 C         1.501734         0.063962        -0.158791
 C         0.020784         0.116056        -0.119350
 C        -1.151626        -0.044582         0.161319
 C        -2.527407        -0.167848         0.289877
 O        -3.194425         1.197985         0.244098
 C        -3.264477        -0.994363        -0.829695
 O        -4.461179        -1.694936        -0.545995
 C        -3.257583        -2.446285        -0.943935
 C        -3.465002        -3.143751        -2.205028
 H         1.845458         0.623102        -1.044984
 H         2.050518         0.578309         0.780277
 H         1.965688        -0.904534        -0.299656
 H        -2.838206        -0.786585         1.161350
 H        -2.398473         1.744001         0.200521
 H        -3.163503        -0.619301        -1.868097
 H        -2.882555        -3.093715        -0.165283
 H        -4.104457        -3.995138        -2.028494
 H        -3.847373        -2.541169        -2.987657
 H        -2.529313        -3.527578        -2.534757
