19
Iteration:   448charge 0 multiplicity 1
 C         1.446147        -0.101075        -0.115961
 C         0.016249        -0.035723         0.127030
 C        -1.172654        -0.016849         0.029731
 C        -2.626615         0.006352         0.099161
 O        -3.271673         1.254351        -0.004073
 C        -3.356672        -0.880521        -0.879300
 O        -4.543121        -1.807545        -0.460299
 C        -3.289888        -2.345465        -0.812526
 C        -2.958585        -3.151526        -1.985551
 H         1.945389        -0.757562         0.615854
 H         1.445680        -0.724863        -1.107426
 H         2.065038         0.767127        -0.153359
 H        -2.977223        -0.268345         1.110024
 H        -3.224025         1.772768        -0.831018
 H        -3.585327        -0.450999        -1.883604
 H        -2.664439        -2.563136         0.116231
 H        -3.427122        -4.198814        -2.055104
 H        -3.439896        -2.830493        -2.923608
 H        -1.915253        -3.471851        -2.291493
