19
Iteration:  3121charge 0 multiplicity 1
 C         1.479123        -0.059417        -0.315773
 C         0.069489        -0.142153        -0.113608
 C        -1.144098        -0.113728         0.061574
 C        -2.590956        -0.270633         0.422158
 O        -3.302144         0.953570         0.837624
 C        -3.305817        -0.726592        -0.903770
 O        -4.296179        -1.841000        -0.456008
 C        -3.181376        -2.164755        -1.244437
 C        -3.484104        -2.767937        -2.571135
 H         2.050460        -0.054863         0.672352
 H         1.882881        -0.916152        -0.893268
 H         1.689771         0.920745        -0.909411
 H        -2.664425        -0.906323         1.328372
 H        -2.696448         1.449440         1.429842
 H        -3.619397         0.048330        -1.591178
 H        -2.397491        -2.734969        -0.657649
 H        -4.226395        -3.671853        -2.486414
 H        -4.083713        -1.976557        -3.072726
 H        -2.577971        -2.910165        -3.215841
