19
Iteration:  1970
 C         1.335918         0.126030        -0.504755
 C        -0.045163        -0.142800        -0.168467
 C        -1.142124        -0.138820         0.275034
 C        -2.618984        -0.193151         0.390531
 O        -3.121975         1.122151         0.562235
 C        -3.120075        -0.936221        -0.783930
 O        -4.487452        -1.427380        -0.747371
 C        -3.397917        -2.434564        -0.959545
 C        -3.181476        -3.146141        -2.224705
 H         1.866281        -0.866878        -0.563362
 H         1.381468         0.488930        -1.605449
 H         1.921451         0.804521         0.178378
 H        -2.860009        -0.844839         1.229585
 H        -3.329092         1.183532         1.485452
 H        -2.713228        -0.415605        -1.717788
 H        -3.313464        -3.130742         0.042846
 H        -3.689797        -4.116515        -2.266357
 H        -3.488356        -2.343454        -2.990557
 H        -2.097745        -3.359450        -2.404425
