19
Iteration:  2594charge 0 multiplicity 1
 C         1.544712        -0.018337        -0.275515
 C         0.151461         0.024701        -0.122042
 C        -1.081105         0.014151        -0.023154
 C        -2.506296        -0.237580         0.386302
 O        -3.311064         1.002258         0.680481
 C        -3.309053        -0.895534        -0.816839
 O        -4.508594        -1.720612        -0.506371
 C        -3.388919        -2.326968        -1.092719
 C        -3.349375        -2.904110        -2.477673
 H         2.038769        -0.177051         0.623511
 H         1.785614        -0.866060        -0.966888
 H         1.818444         1.006724        -0.684000
 H        -2.417454        -0.853678         1.361942
 H        -2.900050         1.184909         1.546748
 H        -3.570772        -0.234314        -1.702790
 H        -2.619473        -2.995806        -0.522391
 H        -3.802627        -3.884944        -2.727363
 H        -3.738628        -2.190044        -3.250272
 H        -2.334814        -3.252628        -2.680390
