19
Iteration:  1449charge 0 multiplicity 1
 C         1.468903         0.382916        -0.391245
 C         0.175708        -0.100173         0.023725
 C        -1.012052        -0.067744         0.158617
 C        -2.481959        -0.282087         0.327269
 O        -3.119567         0.948632         0.438765
 C        -3.062162        -0.997386        -0.876916
 O        -4.559416        -1.301636        -0.767539
 C        -3.583925        -2.364310        -0.915408
 C        -3.450451        -3.356871        -2.119475
 H         2.132686        -0.527454        -0.254956
 H         1.290873         0.920475        -1.331074
 H         1.837018         1.185499         0.327599
 H        -2.612557        -0.997504         1.162368
 H        -4.030167         0.803714         0.673281
 H        -2.915945        -0.551281        -1.862233
 H        -3.143554        -2.912428         0.028970
 H        -4.405728        -3.821719        -2.195906
 H        -3.396496        -2.867381        -3.119322
 H        -2.642357        -4.027491        -1.933940
