19
Iteration:  4989
 C         1.632313         0.261173        -0.008586
 C         0.206866        -0.125631        -0.106213
 C        -1.039244        -0.171877        -0.061518
 C        -2.384326        -0.542305         0.228278
 O        -3.086266         0.450933         1.246850
 C        -3.385094        -0.783963        -0.847708
 O        -4.455105        -1.670262        -0.552402
 C        -3.452817        -2.164703        -1.408810
 C        -3.786541        -2.370472        -2.823692
 H         1.923215         0.781257         0.942566
 H         2.227851        -0.698337        -0.123910
 H         2.027059         0.837869        -0.830531
 H        -2.351406        -1.557091         0.823551
 H        -2.688827         1.337800         1.058687
 H        -3.467438         0.076421        -1.665827
 H        -2.858797        -2.924016        -0.960313
 H        -4.172255        -3.391969        -2.768548
 H        -4.710050        -1.763889        -3.123803
 H        -2.867144        -2.322123        -3.384873
