19
Iteration:  2652
 C         1.497769         0.203245        -0.224321
 C         0.086707        -0.017516        -0.135008
 C        -1.107745        -0.274389         0.032609
 C        -2.629053        -0.312569         0.395033
 O        -3.154760         0.959008         0.712999
 C        -3.302529        -0.872249        -0.873081
 O        -4.424552        -1.618115        -0.546210
 C        -3.253026        -2.334724        -1.086027
 C        -3.499602        -2.926340        -2.512347
 H         1.842987         0.687159         0.663280
 H         1.943123        -0.786065        -0.231594
 H         1.939421         0.702695        -1.107364
 H        -2.751367        -0.933041         1.327536
 H        -2.464391         1.643790         0.682268
 H        -3.311508        -0.209549        -1.701696
 H        -2.727862        -2.899456        -0.377274
 H        -3.989991        -3.862403        -2.217789
 H        -4.255547        -2.340238        -3.059408
 H        -2.576654        -2.931859        -3.084063
