19
Iteration:   879charge 0 multiplicity 1
 C         1.585237         0.270469        -0.004338
 C         0.099148         0.051105         0.094886
 C        -1.131629         0.023740        -0.009326
 C        -2.566969        -0.260171         0.087847
 O        -3.190261         1.066604         0.091611
 C        -3.125178        -0.991009        -0.931868
 O        -4.462401        -1.470396        -0.578066
 C        -3.427132        -2.468741        -0.868444
 C        -3.494396        -3.363167        -2.077147
 H         2.069942        -0.753828        -0.177044
 H         1.560024         0.942570        -0.781170
 H         2.098377         0.581329         0.939701
 H        -2.811687        -0.762946         1.021226
 H        -3.593536         1.355742         1.001481
 H        -3.181020        -0.541397        -1.908242
 H        -2.889426        -2.789545        -0.003575
 H        -4.136610        -4.134237        -1.999516
 H        -3.568781        -2.774393        -2.968568
 H        -2.481183        -3.683236        -2.139938
