19
Iteration:  3468charge 0 multiplicity 1
 C         1.414404         0.363274        -0.291755
 C         0.125866        -0.162166        -0.112807
 C        -1.066900        -0.305103         0.070806
 C        -2.510419        -0.440687         0.368801
 O        -2.989686         0.730582         0.867699
 C        -3.146778        -0.836972        -0.901662
 O        -4.572104        -1.471832        -0.659976
 C        -3.483662        -2.316524        -1.076479
 C        -3.514514        -2.799955        -2.560138
 H         2.088911         0.031271        -0.974218
 H         1.313268         1.408807        -0.532328
 H         1.924244         0.438151         0.773616
 H        -2.807068        -1.239230         1.114276
 H        -2.414254         1.110121         1.553400
 H        -3.248905        -0.077253        -1.690740
 H        -3.166088        -3.063065        -0.300416
 H        -4.337403        -3.553704        -2.656273
 H        -3.739045        -1.948771        -3.134536
 H        -2.547150        -3.165250        -2.715937
