19
Iteration:  2749charge 0 multiplicity 1
 C         1.447695         0.337326        -0.248520
 C         0.049363        -0.093346        -0.220717
 C        -1.044455        -0.263685         0.240328
 C        -2.485065        -0.344907         0.369805
 O        -3.132722         0.853063         0.679237
 C        -3.171479        -0.966564        -0.809638
 O        -4.464168        -1.477399        -0.616106
 C        -3.414076        -2.417518        -0.992212
 C        -3.509640        -2.843013        -2.537065
 H         1.535377         1.357271        -0.210763
 H         1.949260         0.061025         0.723166
 H         2.160925        -0.089715        -1.070393
 H        -2.796656        -1.123178         1.140663
 H        -2.773004         1.589684         0.145776
 H        -3.170637        -0.455741        -1.745938
 H        -3.179728        -3.324417        -0.333569
 H        -4.325196        -3.536773        -2.524618
 H        -3.845539        -1.999135        -3.160949
 H        -2.578739        -3.278758        -2.868314
