19
Iteration:  1073
 C         1.389636        -0.157874        -0.409335
 C        -0.032707        -0.173533        -0.090949
 C        -1.184321         0.062840         0.231673
 C        -2.670481        -0.089834         0.338998
 O        -3.436237         1.148933         0.253078
 C        -3.106579        -0.842156        -0.896663
 O        -4.416778        -1.526321        -0.706484
 C        -3.197946        -2.331819        -0.804502
 C        -3.064276        -3.200633        -2.029076
 H         1.920533         0.172510         0.428470
 H         1.537056        -1.231186        -0.525384
 H         1.541658         0.450438        -1.245838
 H        -3.142697        -0.776536         1.046713
 H        -3.011205         1.715693         0.880843
 H        -2.999275        -0.323471        -1.886355
 H        -2.983543        -2.936469         0.072381
 H        -3.709546        -4.064740        -2.058238
 H        -3.147724        -2.446083        -2.786551
 H        -2.073514        -3.596018        -2.044639
