19
Iteration:  1453charge 0 multiplicity 1
 C         1.470871         0.393253        -0.376458
 C         0.143067        -0.083939         0.003276
 C        -1.020656        -0.095580         0.173869
 C        -2.492315        -0.265792         0.347541
 O        -3.122117         0.947326         0.449673
 C        -3.038333        -1.011198        -0.914569
 O        -4.535189        -1.305618        -0.749709
 C        -3.561132        -2.374062        -0.910448
 C        -3.469646        -3.336464        -2.127006
 H         2.104485        -0.529954        -0.284953
 H         1.311846         0.742345        -1.405044
 H         1.928470         1.194401         0.259843
 H        -2.536325        -1.016664         1.168727
 H        -4.155557         0.979757         0.496020
 H        -2.856640        -0.507817        -1.852222
 H        -3.310631        -2.920937        -0.027025
 H        -4.458053        -3.924297        -2.214301
 H        -3.373010        -2.813579        -3.077825
 H        -2.620283        -4.056350        -1.901103
