19
Iteration:  2967charge 0 multiplicity 1
 C         1.365343         0.249167        -0.433238
 C        -0.002989        -0.169009        -0.045146
 C        -1.177293        -0.245473         0.270690
 C        -2.588593        -0.333411         0.462894
 O        -3.061344         0.898687         0.798229
 C        -3.190613        -0.886206        -0.846100
 O        -4.388292        -1.555910        -0.699447
 C        -3.237767        -2.324653        -1.122313
 C        -3.506118        -2.849814        -2.511644
 H         1.906974        -0.515072        -0.857469
 H         1.309245         1.095471        -1.185752
 H         2.039957         0.550523         0.534467
 H        -2.938761        -1.045552         1.297757
 H        -2.402385         1.604594         0.828758
 H        -2.995428        -0.286226        -1.733177
 H        -2.990230        -3.186585        -0.403396
 H        -4.421382        -3.490854        -2.585934
 H        -3.700163        -1.953844        -3.165295
 H        -2.662360        -3.435138        -2.881006
