19
Iteration:  4308charge 0 multiplicity 1
 C         1.345572         0.219916        -0.552099
 C         0.007318        -0.161581        -0.073872
 C        -1.099557        -0.429944         0.336156
 C        -2.549007        -0.484958         0.461330
 O        -3.116614         0.718078         1.180866
 C        -3.175910        -0.821855        -0.843249
 O        -4.491602        -1.438469        -0.725311
 C        -3.377053        -2.249363        -1.214723
 C        -3.352915        -2.555834        -2.766461
 H         2.082847         0.595219         0.157473
 H         1.824339        -0.739221        -0.793418
 H         1.442676         0.968767        -1.380301
 H        -2.822430        -1.377378         1.157081
 H        -2.305523         1.157258         1.511634
 H        -3.056871        -0.103163        -1.597122
 H        -3.167205        -3.145760        -0.571656
 H        -3.906028        -3.476718        -2.940185
 H        -3.819974        -1.764448        -3.328536
 H        -2.235440        -2.677514        -2.928398
