19
Iteration:  2502charge 0 multiplicity 1
 C         1.373572         0.011345        -0.523704
 C        -0.016667        -0.171208        -0.079249
 C        -1.165039        -0.211322         0.218062
 C        -2.636235        -0.209395         0.471777
 O        -3.240583         1.078401         0.702297
 C        -3.254138        -0.874786        -0.728820
 O        -4.392338        -1.638139        -0.671033
 C        -3.253758        -2.286811        -1.042646
 C        -3.196987        -2.910102        -2.446390
 H         2.100299        -0.857504        -0.353990
 H         1.400228         0.326613        -1.525099
 H         1.732945         0.767438         0.096719
 H        -2.814494        -0.768339         1.463939
 H        -2.884381         1.752099         0.070201
 H        -3.077370        -0.210282        -1.578830
 H        -2.847061        -2.867855        -0.218793
 H        -3.631819        -3.892451        -2.324230
 H        -3.935443        -2.296462        -2.923022
 H        -2.237581        -3.056588        -2.904975
