19
Iteration:  2857
 C         1.520020         0.259138        -0.349025
 C         0.095917        -0.055154        -0.231556
 C        -1.066669        -0.097334         0.172044
 C        -2.519239        -0.385522         0.450379
 O        -3.196424         0.683903         0.979534
 C        -3.126941        -0.801101        -0.862192
 O        -4.453134        -1.365718        -0.838520
 C        -3.445691        -2.279312        -1.173902
 C        -3.533690        -3.082049        -2.363784
 H         1.847413         0.460063        -1.310855
 H         1.669063         1.034331         0.436198
 H         2.130410        -0.580823         0.199826
 H        -2.802880        -1.220242         0.999199
 H        -3.072524         1.395805         0.319962
 H        -2.962224        -0.112208        -1.642810
 H        -3.052255        -2.738380        -0.238532
 H        -4.071585        -3.955665        -2.150238
 H        -3.900639        -2.575122        -3.245998
 H        -2.584765        -3.386954        -2.601217
