19
Iteration:  3852charge 0 multiplicity 1
 C         1.361537        -0.140341        -0.637684
 C        -0.009392         0.013163        -0.133047
 C        -1.174191        -0.105570         0.262452
 C        -2.575456        -0.434039         0.556869
 O        -3.217530         0.764027         1.101955
 C        -3.302830        -0.803799        -0.652677
 O        -4.443579        -1.577548        -0.761730
 C        -3.167572        -2.163892        -1.200908
 C        -3.214932        -2.619443        -2.648482
 H         1.756084         0.721617        -1.003898
 H         1.823941        -0.477865         0.271981
 H         1.460196        -0.962336        -1.429844
 H        -2.667085        -1.121362         1.376490
 H        -3.039076         1.513931         0.511084
 H        -3.436495         0.070631        -1.302574
 H        -2.758218        -2.952513        -0.585517
 H        -3.983203        -3.400223        -2.676606
 H        -3.459520        -2.076260        -3.639067
 H        -2.235277        -3.137433        -2.781351
