19
Iteration:  4107
 C         1.623633         0.195940        -0.087495
 C         0.184289         0.012271        -0.063220
 C        -1.025889        -0.101057         0.104323
 C        -2.516645        -0.432385         0.273796
 O        -3.043793         0.606304         0.921648
 C        -3.378290        -0.818449        -0.863926
 O        -4.454925        -1.600507        -0.458785
 C        -3.501958        -2.256051        -1.279044
 C        -3.684995        -2.687703        -2.798681
 H         2.052687        -0.689360        -0.367014
 H         1.755172         1.077382        -0.773120
 H         2.174910         0.537532         0.895823
 H        -2.520858        -1.406017         0.863044
 H        -2.250848         1.046868         1.269670
 H        -3.543299        -0.205309        -1.777093
 H        -3.039913        -3.050899        -0.705012
 H        -4.002791        -3.782747        -2.982398
 H        -4.454309        -1.997150        -3.226978
 H        -2.701084        -2.467920        -3.295565
