19
Iteration:  3394charge 0 multiplicity 1
 C         1.414480         0.089341        -0.425390
 C         0.021081         0.143676        -0.003330
 C        -1.109182        -0.147400         0.256329
 C        -2.498092        -0.376489         0.423476
 O        -3.121294         0.741465         0.899237
 C        -3.115812        -0.855472        -0.865250
 O        -4.423765        -1.491793        -0.679354
 C        -3.432618        -2.414989        -1.165237
 C        -3.534466        -2.807358        -2.598665
 H         1.459045         0.136545        -1.659060
 H         2.009822         0.971275        -0.191649
 H         2.066439        -0.697146        -0.077598
 H        -2.481050        -1.122712         1.218635
 H        -2.591844         1.251993         1.521376
 H        -2.918279        -0.198346        -1.768432
 H        -2.971549        -3.275255        -0.508600
 H        -4.378783        -3.591766        -2.692818
 H        -3.942234        -1.814470        -3.006120
 H        -2.585448        -3.117407        -3.083399
