19
Iteration:  3128charge 0 multiplicity 1
 C         1.462242        -0.070790        -0.387793
 C         0.075487        -0.085089        -0.025499
 C        -1.132884        -0.139352         0.062154
 C        -2.591227        -0.274742         0.370849
 O        -3.308225         0.995691         0.839364
 C        -3.345136        -0.770493        -0.832851
 O        -4.256433        -1.830660        -0.489464
 C        -3.164467        -2.184525        -1.237960
 C        -3.494033        -2.749274        -2.569452
 H         2.109290         0.089291         0.653189
 H         1.820757        -1.088906        -0.759822
 H         1.673209         0.797158        -0.828785
 H        -2.847511        -0.940859         1.157097
 H        -2.569297         1.200578         1.466752
 H        -3.561251         0.022096        -1.543401
 H        -2.448084        -2.701480        -0.690434
 H        -4.173358        -3.608244        -2.492916
 H        -4.081292        -1.967299        -3.107896
 H        -2.714927        -3.041267        -3.275797
