19
Iteration:    12
 C         1.504380         0.166157        -0.057073
 C         0.015102         0.046167        -0.094831
 C        -1.149598         0.088078         0.116984
 C        -2.624320        -0.128155         0.198225
 O        -3.220915         1.351527        -0.009953
 C        -3.147678        -1.031030        -0.893392
 O        -4.508355        -1.580804        -0.876780
 C        -3.319884        -2.513156        -0.657217
 C        -3.345467        -3.517360        -1.773851
 H         1.710913        -0.409265         0.889430
 H         2.046070        -0.377633        -0.854763
 H         1.932408         1.176600         0.082168
 H        -3.033464        -0.552435         1.099612
 H        -2.519002         1.705239        -0.673788
 H        -2.731398        -0.814823        -1.873436
 H        -2.942416        -2.857606         0.302649
 H        -4.071065        -4.300013        -1.530337
 H        -3.647565        -3.074438        -2.723925
 H        -2.384358        -4.020134        -1.900396
