19
Iteration:  1737
 C         1.299548        -0.073515        -0.276809
 C        -0.065867         0.090143        -0.136855
 C        -1.195489        -0.131221         0.183041
 C        -2.628412        -0.145055         0.401341
 O        -3.114120         1.216525         0.341726
 C        -3.223086        -0.947063        -0.808932
 O        -4.309446        -1.818523        -0.378724
 C        -3.142460        -2.368255        -1.047179
 C        -3.431250        -2.964970        -2.404152
 H         1.755277         0.680533        -0.971113
 H         1.848109        -0.056325         0.641934
 H         1.691191        -0.926795        -0.834385
 H        -2.945902        -0.750009         1.323260
 H        -2.335098         1.831706         0.478465
 H        -3.501514        -0.290262        -1.650474
 H        -2.648275        -3.003278        -0.224209
 H        -3.938404        -3.907419        -2.441225
 H        -4.026726        -2.221813        -2.897239
 H        -2.583300        -3.127524        -3.033185
