19
Iteration:   817
 C         1.510684         0.299657         0.096837
 C         0.098373         0.224134         0.001705
 C        -1.094392        -0.008697         0.033514
 C        -2.504566        -0.150913         0.126942
 O        -3.119688         1.091708         0.186666
 C        -3.128208        -1.063277        -0.867082
 O        -4.444264        -1.539047        -0.667832
 C        -3.409642        -2.515651        -0.905532
 C        -3.664887        -3.455023        -2.107397
 H         2.147778        -0.193875        -0.673680
 H         1.915204         1.328108        -0.010515
 H         1.876816         0.020416         1.137471
 H        -2.711458        -0.579259         1.161079
 H        -2.651924         1.501239        -0.631148
 H        -3.066950        -0.599495        -1.846414
 H        -3.058432        -2.955254         0.069656
 H        -4.436767        -4.333402        -1.881344
 H        -4.037491        -2.856169        -2.996598
 H        -2.749221        -4.011343        -2.469307
