19
Iteration:   931charge 0 multiplicity 1
 C         1.486406         0.162872        -0.113394
 C         0.031656         0.046160        -0.095044
 C        -1.155620        -0.008838         0.096747
 C        -2.629353        -0.159322         0.263308
 O        -3.083576         1.215199         0.370103
 C        -3.231025        -0.988656        -0.952903
 O        -4.476687        -1.573600        -0.791059
 C        -3.408484        -2.464539        -0.838040
 C        -3.294801        -3.346891        -2.043129
 H         1.880262        -0.765616         0.305724
 H         1.981144         0.295227        -1.163000
 H         1.823723         0.893541         0.603121
 H        -2.997043        -0.578360         1.230099
 H        -3.483017         1.463404        -0.520356
 H        -3.028502        -0.662573        -2.024365
 H        -2.961817        -2.763996         0.138987
 H        -3.960292        -4.282987        -1.760240
 H        -3.677282        -2.747910        -2.922385
 H        -2.305904        -3.875710        -2.251976
