19
Iteration:  1517charge 0 multiplicity 1
 C         1.477522         0.246764        -0.412288
 C         0.088454         0.109299        -0.120051
 C        -1.110052        -0.027617         0.242557
 C        -2.538114        -0.288847         0.401027
 O        -3.158758         0.979403         0.558885
 C        -2.985666        -1.081471        -0.844379
 O        -4.474166        -1.302665        -0.753491
 C        -3.474039        -2.475902        -0.916825
 C        -3.515778        -3.316350        -2.226578
 H         1.993291        -0.324680         0.457384
 H         1.779066        -0.243259        -1.317770
 H         1.947696         1.287693        -0.499776
 H        -2.697495        -0.511838         1.424539
 H        -3.607724         1.135683        -0.300080
 H        -2.595019        -0.526845        -1.671464
 H        -3.480195        -2.988459         0.059266
 H        -4.360482        -4.001573        -2.234162
 H        -3.683277        -2.704966        -3.094798
 H        -2.581749        -3.811864        -2.467734
