19
Iteration:  1144
 C         1.408520        -0.158682        -0.268681
 C        -0.022716        -0.006360        -0.160799
 C        -1.212733         0.027689         0.113591
 C        -2.645670        -0.067703         0.281905
 O        -3.222720         1.265764         0.448701
 C        -3.241381        -0.936141        -0.889473
 O        -4.495083        -1.673370        -0.684031
 C        -3.246402        -2.378910        -0.873227
 C        -3.074957        -3.207215        -2.095140
 H         2.024790         0.748629         0.043499
 H         1.580486        -0.968592         0.423092
 H         1.549811        -0.432466        -1.359794
 H        -2.879474        -0.379403         1.321179
 H        -3.186399         1.775561        -0.337687
 H        -3.280443        -0.357653        -1.798514
 H        -2.873917        -2.810953         0.098777
 H        -3.472989        -4.246496        -1.886910
 H        -3.692600        -2.628898        -2.862725
 H        -1.973971        -3.323680        -2.456949
