19
Iteration:  3729charge 0 multiplicity 1
 C         1.321389         0.110414        -0.457118
 C        -0.017468        -0.079662        -0.109208
 C        -1.172350        -0.293346         0.174470
 C        -2.589641        -0.428380         0.482118
 O        -2.993951         0.896792         1.058053
 C        -3.277647        -0.871582        -0.816869
 O        -4.520454        -1.594002        -0.692270
 C        -3.281062        -2.210784        -1.165847
 C        -3.308019        -2.727203        -2.641852
 H         1.948108         0.650857         0.341374
 H         1.714624        -0.904442        -0.538763
 H         1.256859         0.759460        -1.373709
 H        -2.860285        -1.158527         1.238051
 H        -2.139368         1.327481         0.916772
 H        -3.205493        -0.013985        -1.585721
 H        -2.580793        -2.855640        -0.498969
 H        -3.574360        -3.846159        -2.842574
 H        -4.191467        -2.108403        -3.101375
 H        -2.351923        -2.579909        -3.256947
