19
Iteration:  4990
 C         1.639777         0.263449        -0.003127
 C         0.203391        -0.121427        -0.111066
 C        -1.029258        -0.182645        -0.057705
 C        -2.389368        -0.545602         0.232808
 O        -3.083720         0.451703         1.240539
 C        -3.379365        -0.776208        -0.848343
 O        -4.464446        -1.674196        -0.550052
 C        -3.455033        -2.169834        -1.400099
 C        -3.784945        -2.364462        -2.832936
 H         1.957699         0.785828         0.920854
 H         2.210403        -0.703864        -0.097637
 H         2.021495         0.856574        -0.846964
 H        -2.345180        -1.502897         0.816059
 H        -2.710383         1.353570         1.077807
 H        -3.515101         0.079592        -1.633402
 H        -2.854392        -2.905362        -0.986813
 H        -4.147170        -3.429326        -2.787705
 H        -4.721033        -1.783400        -3.127145
 H        -2.893591        -2.337104        -3.397921
