19
Iteration:  2083
 C         1.553218         0.230731        -0.308613
 C         0.048402         0.056349        -0.183394
 C        -1.113764        -0.198326         0.175566
 C        -2.572897        -0.295532         0.345941
 O        -3.164829         1.010971         0.729642
 C        -3.141624        -0.879183        -0.952885
 O        -4.468797        -1.542034        -0.741594
 C        -3.320459        -2.332890        -0.961047
 C        -3.528035        -3.226701        -2.250108
 H         2.027419         0.251636         0.656732
 H         2.037114        -0.526555        -0.985702
 H         1.599506         1.258700        -0.738739
 H        -2.717872        -0.694949         1.270283
 H        -3.326701         1.512818        -0.070539
 H        -2.761209        -0.417158        -1.875943
 H        -2.895021        -2.949979        -0.080611
 H        -4.552588        -3.645429        -2.126050
 H        -3.657259        -2.447223        -2.966987
 H        -2.819774        -3.980505        -2.552025
