19
Iteration:  1840charge 0 multiplicity 1
 C         1.433263        -0.180807        -0.219722
 C        -0.066217        -0.008926        -0.377763
 C        -1.186540        -0.096337         0.028502
 C        -2.635744        -0.114929         0.347120
 O        -3.236233         1.197370         0.552192
 C        -3.331023        -0.918070        -0.840963
 O        -4.365531        -1.759240        -0.403973
 C        -3.126921        -2.387891        -0.897487
 C        -3.219024        -2.916797        -2.402371
 H         1.771115        -0.584402        -1.152754
 H         1.843548         0.857038         0.151323
 H         1.717903        -0.917740         0.580426
 H        -2.691165        -0.656641         1.363699
 H        -3.347258         1.588163        -0.341255
 H        -3.607585        -0.170910        -1.648108
 H        -2.508867        -2.712314        -0.134663
 H        -3.606392        -3.947466        -2.399994
 H        -4.117197        -2.344999        -2.755654
 H        -2.346454        -2.520090        -2.956463
