19
Iteration:   315charge 0 multiplicity 1
 C         1.579572         0.140453        -0.044082
 C         0.113298        -0.009331         0.172861
 C        -1.067554        -0.062038        -0.098762
 C        -2.645103        -0.035530         0.059712
 O        -3.263699         1.122201        -0.049804
 C        -3.304545        -0.937840        -0.917650
 O        -4.584721        -1.635104        -0.620606
 C        -3.397043        -2.370753        -0.717635
 C        -3.194195        -3.374886        -1.912816
 H         1.872257        -0.393547        -0.900601
 H         1.747232         1.209548        -0.301568
 H         2.179626        -0.100483         0.798642
 H        -2.817833        -0.563732         1.012019
 H        -2.901864         1.869337         0.463588
 H        -3.279491        -0.434879        -1.836809
 H        -2.949374        -2.818274         0.224791
 H        -3.781771        -4.265830        -1.708002
 H        -3.510674        -2.852613        -2.831993
 H        -2.116672        -3.524315        -1.994949
