19
Iteration:  2396charge 0 multiplicity 1
 C         1.369286        -0.026360        -0.479799
 C        -0.090180        -0.138316        -0.237391
 C        -1.196804        -0.135715         0.149452
 C        -2.673131        -0.169693         0.387016
 O        -3.272138         1.029528         0.873003
 C        -3.163582        -0.806195        -0.885083
 O        -4.383786        -1.537265        -0.670459
 C        -3.151236        -2.326896        -0.963415
 C        -3.218177        -3.059793        -2.373358
 H         1.682674        -0.475681        -1.408122
 H         1.513482         1.123335        -0.555350
 H         1.993935        -0.348990         0.447217
 H        -2.842532        -0.970860         1.073304
 H        -2.700042         1.834920         0.772809
 H        -3.228238        -0.295298        -1.852988
 H        -3.032092        -2.980649        -0.032358
 H        -3.916724        -3.918023        -2.294233
 H        -3.462181        -2.401239        -3.212409
 H        -2.140820        -3.368897        -2.618248
