19
Iteration:  2308charge 0 multiplicity 1
 C         1.436406         0.152536        -0.346582
 C         0.022699        -0.038702        -0.144513
 C        -1.118746        -0.069082         0.076161
 C        -2.509937        -0.316981         0.453178
 O        -3.251699         0.976271         0.532179
 C        -3.167653        -0.974024        -0.758817
 O        -4.479931        -1.552730        -0.619898
 C        -3.240245        -2.435357        -0.965961
 C        -3.451177        -2.933139        -2.391462
 H         1.713744         0.660238        -1.305516
 H         1.964696         0.673113         0.536088
 H         1.848826        -0.909870        -0.355257
 H        -2.645830        -0.710536         1.394240
 H        -2.555298         1.621648         0.808073
 H        -3.100204        -0.350969        -1.642427
 H        -3.026417        -3.076320        -0.099513
 H        -3.925165        -3.930590        -2.553899
 H        -3.976723        -2.200250        -3.004043
 H        -2.362521        -3.061587        -2.718420
