19
Iteration:  1428
 C         1.587926         0.417985        -0.320710
 C         0.217681        -0.072403        -0.014124
 C        -1.050749        -0.138454         0.093311
 C        -2.495752        -0.308617         0.284661
 O        -3.150075         0.981707         0.485266
 C        -3.219115        -0.958724        -0.957874
 O        -4.551303        -1.352652        -0.847080
 C        -3.507326        -2.430518        -0.869495
 C        -3.488149        -3.306827        -2.035872
 H         2.239270        -0.526916        -0.584742
 H         1.328912         1.105644        -1.116073
 H         2.182723         1.008654         0.482277
 H        -2.454614        -1.041629         1.111861
 H        -3.758719         1.115928         1.224177
 H        -2.986604        -0.476198        -1.913498
 H        -3.642643        -3.016684         0.128988
 H        -4.354349        -3.954841        -2.162689
 H        -3.397686        -2.710287        -2.978278
 H        -2.573306        -3.872611        -1.854971
