19
Iteration:  4277charge 0 multiplicity 1
 C         1.341054         0.275561        -0.490820
 C        -0.036699        -0.123426        -0.126787
 C        -1.087376        -0.430809         0.354261
 C        -2.475092        -0.589095         0.591978
 O        -3.083023         0.681621         0.958215
 C        -3.118134        -0.904573        -0.679333
 O        -4.508263        -1.441725        -0.791460
 C        -3.349848        -2.179912        -1.263794
 C        -3.448903        -2.496143        -2.726968
 H         2.082627         0.336919         0.375693
 H         1.636413        -0.563187        -1.066477
 H         1.388677         1.131454        -1.008025
 H        -2.719022        -1.280337         1.438607
 H        -2.399003         1.205152         1.394533
 H        -2.945207        -0.077457        -1.270414
 H        -3.302983        -3.106763        -0.608436
 H        -4.180105        -3.250007        -2.634552
 H        -3.637557        -1.822860        -3.484934
 H        -2.472603        -2.925246        -2.976518
