19
Iteration:  3406
 C         1.459920         0.173819        -0.449746
 C         0.084353         0.107211         0.015146
 C        -1.074950        -0.160268         0.269374
 C        -2.479662        -0.477370         0.461914
 O        -3.120475         0.785507         0.891275
 C        -3.173838        -0.936511        -0.890861
 O        -4.479571        -1.490391        -0.725428
 C        -3.372124        -2.302458        -1.131624
 C        -3.560432        -2.826997        -2.584289
 H         1.592432        -0.109204        -1.634310
 H         1.841990         1.153201        -0.185355
 H         1.929185        -0.586730         0.073939
 H        -2.732772        -1.331417         1.120124
 H        -2.472963         1.112956         1.538976
 H        -3.255797        -0.175636        -1.710858
 H        -2.984681        -2.873112        -0.212169
 H        -4.421820        -3.558666        -2.729699
 H        -3.897856        -1.923217        -3.248447
 H        -2.701727        -3.244746        -3.212221
