19
Iteration:  3645charge 0 multiplicity 1
 C         1.532319         0.099008        -0.262588
 C         0.137772         0.076030        -0.016768
 C        -1.094595        -0.089383        -0.053012
 C        -2.543146        -0.364888         0.377415
 O        -3.083539         0.715515         0.967560
 C        -3.236456        -0.925684        -0.767910
 O        -4.498470        -1.624083        -0.607013
 C        -3.351624        -2.300845        -1.142276
 C        -3.593123        -2.691071        -2.674779
 H         2.040109        -0.148190         0.618500
 H         1.820992        -0.524349        -1.142670
 H         2.010631         1.219638        -0.363242
 H        -2.419115        -1.174385         1.193946
 H        -3.029019         1.423325         0.285425
 H        -3.486620        -0.188311        -1.586890
 H        -2.840247        -3.104518        -0.532404
 H        -4.327470        -3.481774        -2.496415
 H        -4.056785        -1.923968        -3.384251
 H        -2.720044        -3.090820        -3.143839
