19
Iteration:  4176charge 0 multiplicity 1
 C         1.539462         0.233395        -0.159260
 C         0.087952         0.000223        -0.204860
 C        -1.060806        -0.216248         0.185864
 C        -2.480041        -0.440264         0.343321
 O        -3.070003         0.603645         1.083264
 C        -3.213248        -0.801721        -0.906013
 O        -4.414994        -1.497988        -0.632850
 C        -3.504149        -2.292255        -1.261061
 C        -3.664348        -2.685532        -2.750551
 H         1.956656        -0.620219         0.289517
 H         1.824040         0.459079        -1.203500
 H         1.812959         1.130704         0.429770
 H        -2.627173        -1.377201         0.918676
 H        -2.365335         0.974104         1.653141
 H        -3.237901         0.014650        -1.683677
 H        -2.967915        -2.999367        -0.581651
 H        -4.243742        -3.617696        -2.707718
 H        -4.241426        -2.014073        -3.448832
 H        -2.714019        -3.102777        -3.110235
