19
Iteration:  4442charge 0 multiplicity 1
 C         1.568812        -0.035088        -0.479904
 C         0.110750        -0.101769        -0.057457
 C        -1.095383        -0.230863         0.176225
 C        -2.602601        -0.364963         0.472450
 O        -3.281934         0.801937         1.114079
 C        -3.400724        -0.857998        -0.765382
 O        -4.390617        -1.786319        -0.478446
 C        -3.281276        -2.209018        -1.366045
 C        -3.385295        -2.378041        -2.853997
 H         2.145131         0.966970        -0.702016
 H         2.023778        -0.539217         0.408653
 H         1.664851        -0.684673        -1.307716
 H        -2.679677        -1.235542         1.157429
 H        -2.589985         1.111981         1.712349
 H        -3.707813        -0.010378        -1.441964
 H        -2.482539        -2.864991        -0.746269
 H        -4.113057        -3.118362        -3.257992
 H        -3.977434        -1.434029        -3.065442
 H        -2.605937        -2.209196        -3.693170
