19
Iteration:  1977
 C         1.316603         0.118563        -0.522950
 C         0.032623        -0.090504        -0.127932
 C        -1.148788        -0.152992         0.228838
 C        -2.615392        -0.255847         0.407393
 O        -3.118012         1.115995         0.560891
 C        -3.101680        -1.013873        -0.819232
 O        -4.555464        -1.419484        -0.782100
 C        -3.405786        -2.391092        -0.872325
 C        -3.167333        -3.103943        -2.217286
 H         1.977186        -0.829737        -0.422023
 H         1.357950         0.495205        -1.509659
 H         1.954429         0.850964        -0.003930
 H        -2.867032        -0.680641         1.393440
 H        -3.283886         1.083024         1.495980
 H        -2.783529        -0.442116        -1.702692
 H        -3.391655        -2.906476         0.067082
 H        -3.663021        -4.076699        -2.460132
 H        -3.481528        -2.538691        -3.111508
 H        -2.078831        -3.296706        -2.409362
