19
Iteration:  1393
 C         1.450380         0.301273        -0.158374
 C         0.053681         0.201611        -0.218640
 C        -1.042392        -0.169417         0.045530
 C        -2.509784        -0.309057         0.304844
 O        -3.042475         1.009680         0.506981
 C        -3.164305        -0.993346        -0.946597
 O        -4.464538        -1.357079        -0.854932
 C        -3.518153        -2.460517        -0.862885
 C        -3.513667        -3.335543        -2.038975
 H         1.722685        -0.482521        -0.922999
 H         1.823986         1.210013        -0.728032
 H         1.945383         0.276967         0.839889
 H        -2.762403        -1.049413         1.068953
 H        -2.987238         1.231712         1.446266
 H        -3.064109        -0.608977        -1.995935
 H        -3.232892        -3.026347         0.112905
 H        -4.228118        -4.099526        -1.871721
 H        -3.711908        -2.778644        -2.970616
 H        -2.566761        -3.803975        -2.206387
