19
Iteration:  3492charge 0 multiplicity 1
 C         1.485141         0.396650        -0.208504
 C         0.089678         0.039758        -0.133891
 C        -1.031507        -0.440137         0.035794
 C        -2.503064        -0.513156         0.388765
 O        -2.941723         0.788191         0.862054
 C        -3.308810        -0.928966        -0.794062
 O        -4.584597        -1.452715        -0.715649
 C        -3.468194        -2.348976        -1.143979
 C        -3.542658        -2.772652        -2.566185
 H         2.148486        -0.334382        -0.852867
 H         1.723495         1.285405        -0.824258
 H         2.020684         0.600308         0.773899
 H        -2.714258        -1.173172         1.237687
 H        -2.330510         1.155027         1.505684
 H        -3.217657        -0.275517        -1.742500
 H        -3.137293        -3.096372        -0.268706
 H        -4.237017        -3.625959        -2.414780
 H        -4.068411        -1.972687        -3.185467
 H        -2.523296        -3.013166        -2.785802
