19
Iteration:  4902charge 0 multiplicity 1
 C         1.611474         0.242961        -0.370928
 C         0.115412        -0.016358         0.059201
 C        -1.072616        -0.208671         0.216223
 C        -2.426812        -0.577976         0.502854
 O        -3.092398         0.415717         1.240813
 C        -3.191143        -0.866120        -0.871616
 O        -4.522063        -1.454261        -0.690211
 C        -3.522754        -2.209016        -1.380306
 C        -3.636312        -2.487251        -2.850119
 H         2.371315         0.026339         0.418701
 H         1.878293        -0.484191        -1.181431
 H         1.614636         1.270494        -0.666504
 H        -2.402432        -1.367013         1.140365
 H        -2.903776         1.322192         0.914169
 H        -3.241559         0.001660        -1.627556
 H        -2.968656        -2.867457        -0.776238
 H        -4.540247        -3.041651        -3.154970
 H        -3.695500        -1.507814        -3.481183
 H        -2.915580        -3.169330        -3.309724
