19
Iteration:  2806
 C         1.512731         0.239731        -0.302663
 C         0.108624         0.143174         0.065975
 C        -1.062837        -0.126241         0.105154
 C        -2.442210        -0.388748         0.325564
 O        -3.108081         0.775137         0.922367
 C        -3.183995        -0.887755        -0.989405
 O        -4.565124        -1.476701        -0.788381
 C        -3.493229        -2.368085        -1.059908
 C        -3.514273        -2.992471        -2.417945
 H         1.435915         0.918696        -1.181644
 H         2.277182         0.557439         0.420807
 H         1.818730        -0.731139        -0.751251
 H        -2.519447        -1.343353         0.998724
 H        -2.501244         1.473672         0.604815
 H        -3.178920        -0.239449        -1.885423
 H        -3.092740        -2.953252        -0.179309
 H        -4.331478        -3.802962        -2.322001
 H        -3.758501        -2.321194        -3.228251
 H        -2.587264        -3.650336        -2.609930
