19
Iteration:  1220
 C         1.483750         0.048468        -0.185482
 C         0.133028        -0.099255         0.014069
 C        -1.116830        -0.133123         0.034528
 C        -2.637083        -0.125719         0.155602
 O        -3.182409         1.291941         0.343112
 C        -3.302576        -0.935398        -0.859413
 O        -4.507230        -1.682193        -0.482044
 C        -3.237673        -2.382816        -0.913654
 C        -3.310116        -3.162142        -2.213261
 H         1.561674         0.949938        -0.845536
 H         2.040095         0.224356         0.643610
 H         1.726615        -0.797721        -0.841591
 H        -2.776947        -0.469842         1.170391
 H        -4.088841         1.406826        -0.138144
 H        -3.303192        -0.389935        -1.796939
 H        -2.706885        -2.882250        -0.046418
 H        -3.760351        -4.188972        -2.165039
 H        -3.736359        -2.713065        -3.153291
 H        -2.177644        -3.292067        -2.270131
