19
Iteration:   733
 C         1.405406         0.381477         0.045273
 C         0.107548        -0.137736        -0.151011
 C        -1.079741        -0.179011         0.082510
 C        -2.602003        -0.165474         0.126853
 O        -3.195333         1.139947         0.183306
 C        -3.146008        -0.966936        -0.974960
 O        -4.454377        -1.389542        -0.693505
 C        -3.377756        -2.476363        -0.764895
 C        -3.382008        -3.437034        -1.999396
 H         1.796260         0.709771        -0.933856
 H         1.390791         1.174940         0.941035
 H         2.143524        -0.411541         0.245676
 H        -2.753515        -0.757098         1.083124
 H        -2.639879         1.781530        -0.181138
 H        -3.100513        -0.733505        -2.098746
 H        -3.400313        -3.062212         0.263919
 H        -4.126919        -4.209108        -2.006226
 H        -3.755075        -2.820880        -2.790675
 H        -2.372543        -3.780276        -2.028931
