19
Iteration:  1162charge 0 multiplicity 1
 C         1.396132        -0.133640        -0.229966
 C         0.000534         0.012203        -0.199508
 C        -1.231279        -0.098265         0.038008
 C        -2.728418        -0.086425         0.295757
 O        -3.266232         1.253534         0.378855
 C        -3.270936        -0.865278        -0.863486
 O        -4.421464        -1.618457        -0.597602
 C        -3.214922        -2.357337        -0.844332
 C        -3.133222        -3.235250        -2.148060
 H         1.801591         0.872120        -0.160192
 H         1.834895        -0.763155         0.555478
 H         1.898418        -0.515048        -1.077881
 H        -2.929936        -0.652930         1.222110
 H        -2.537751         1.835928         0.344544
 H        -3.049820        -0.392415        -1.848724
 H        -2.932206        -2.967437         0.044608
 H        -3.335821        -4.284631        -1.959033
 H        -3.581897        -2.792026        -3.008125
 H        -2.101143        -3.204929        -2.479911
