19
Iteration:  3399
 C         1.433522         0.114471        -0.466612
 C         0.032626         0.138089         0.014713
 C        -1.114121        -0.155171         0.273123
 C        -2.494943        -0.409974         0.431826
 O        -3.103317         0.747784         0.893279
 C        -3.124076        -0.868030        -0.883640
 O        -4.450135        -1.486912        -0.700606
 C        -3.424463        -2.389956        -1.143010
 C        -3.530989        -2.831318        -2.592713
 H         1.533612         0.081152        -1.464885
 H         1.939455         1.069210        -0.177804
 H         2.067277        -0.683132         0.062532
 H        -2.463436        -1.188448         1.291414
 H        -2.569382         1.238527         1.555953
 H        -3.137334        -0.246354        -1.768131
 H        -2.941367        -3.000497        -0.455205
 H        -4.379658        -3.446269        -2.748719
 H        -3.954650        -1.903930        -3.003992
 H        -2.678465        -3.159721        -3.247005
