19
Iteration:   750
 C         1.547313         0.423780         0.032873
 C         0.114331        -0.131925        -0.007487
 C        -1.103420        -0.150364        -0.039428
 C        -2.537399        -0.249348         0.162315
 O        -3.171380         1.123534         0.155376
 C        -3.182377        -1.017077        -0.948362
 O        -4.551272        -1.472480        -0.696035
 C        -3.442903        -2.424441        -0.822313
 C        -3.410023        -3.355408        -1.982594
 H         1.866797         0.818912        -0.938456
 H         1.480732         1.256118         0.667749
 H         2.140360        -0.269003         0.665194
 H        -2.699229        -0.631608         1.204890
 H        -2.905724         1.746034        -0.488754
 H        -2.887493        -0.458424        -1.802233
 H        -2.936835        -2.934015        -0.009833
 H        -4.245645        -4.157768        -1.787841
 H        -3.757815        -2.880672        -2.954941
 H        -2.431466        -3.930021        -1.943063
