19
Iteration:  3662
 C         1.493343         0.123817        -0.261990
 C         0.086790        -0.056002        -0.115235
 C        -1.094298        -0.099089         0.023572
 C        -2.452994        -0.436122         0.348588
 O        -3.102793         0.764441         0.997289
 C        -3.316100        -0.860415        -0.869854
 O        -4.496879        -1.615771        -0.520315
 C        -3.416987        -2.279272        -1.217158
 C        -3.486048        -2.723796        -2.636946
 H         2.203572         0.104384         0.694181
 H         1.802239        -0.583330        -1.013050
 H         1.712674         1.145988        -0.509522
 H        -2.516195        -1.206520         1.064530
 H        -2.969931         1.525078         0.391446
 H        -3.239303        -0.055754        -1.622336
 H        -2.820585        -2.940447        -0.554300
 H        -4.163177        -3.629732        -2.798478
 H        -3.942119        -1.806916        -2.989401
 H        -2.348227        -2.857378        -2.809626
