19
Iteration:  1661charge 0 multiplicity 1
 C         1.459123         0.121447        -0.350073
 C         0.065267        -0.082031         0.044759
 C        -1.120792        -0.194402         0.001075
 C        -2.551300        -0.200057         0.270983
 O        -3.206579         1.074979         0.422872
 C        -3.301912        -0.882255        -0.880193
 O        -4.497940        -1.561552        -0.461044
 C        -3.366996        -2.367884        -0.868406
 C        -3.255662        -3.059962        -2.316054
 H         2.034787         1.082960        -0.213043
 H         2.187002        -0.642245        -0.085218
 H         1.500887        -0.062588        -1.456754
 H        -2.836195        -0.926153         1.080973
 H        -3.103894         1.387509         1.313501
 H        -3.348629        -0.470773        -1.880720
 H        -2.734053        -2.695048        -0.032661
 H        -3.782501        -4.013210        -2.484027
 H        -3.653891        -2.442216        -3.097377
 H        -2.238999        -3.329638        -2.634546
