19
Iteration:  4678
 C         1.428130        -0.069062        -0.521092
 C         0.077582        -0.031984         0.036723
 C        -1.107215        -0.103561         0.178336
 C        -2.549797        -0.464641         0.535399
 O        -3.178242         0.605263         1.256934
 C        -3.257676        -0.814910        -0.787703
 O        -4.345052        -1.670387        -0.548242
 C        -3.359184        -2.100773        -1.439455
 C        -3.477180        -2.444248        -2.913728
 H         1.532866        -0.884890        -1.155065
 H         1.821437         0.866308        -0.810259
 H         2.121345        -0.330650         0.407769
 H        -2.643555        -1.335556         1.188315
 H        -2.913543         1.433223         0.844169
 H        -3.443884         0.081670        -1.356101
 H        -2.843442        -2.904891        -0.922851
 H        -3.811149        -3.512645        -3.019465
 H        -4.118629        -1.684068        -3.383887
 H        -2.491294        -2.234561        -3.442701
