19
Iteration:  4832
 C         1.287911         0.328618        -0.474076
 C        -0.015282        -0.108877        -0.099161
 C        -1.039214        -0.576952         0.395869
 C        -2.466452        -0.626715         0.635126
 O        -2.964090         0.511092         1.222150
 C        -3.090975        -0.862644        -0.764415
 O        -4.573644        -1.263158        -0.822262
 C        -3.518258        -2.133734        -1.374059
 C        -3.407878        -2.527037        -2.808574
 H         2.179849        -0.218341        -0.205472
 H         1.286232         0.143753        -1.565345
 H         1.308929         1.420807        -0.240044
 H        -2.735731        -1.475017         1.274863
 H        -2.592584         1.265439         0.710846
 H        -2.701947        -0.025816        -1.462936
 H        -3.187368        -2.946547        -0.646132
 H        -3.810512        -3.519328        -3.074215
 H        -3.899961        -1.776146        -3.365085
 H        -2.350245        -2.646343        -3.206097
