19
Iteration:  2353charge 0 multiplicity 1
 C         1.481228        -0.028131        -0.523708
 C         0.088829         0.119375         0.024222
 C        -1.063162         0.010715         0.309125
 C        -2.553497        -0.265942         0.350924
 O        -3.291207         0.948594         0.698153
 C        -3.344161        -0.835777        -0.870943
 O        -4.466965        -1.604265        -0.680076
 C        -3.306487        -2.372273        -1.084877
 C        -3.292129        -3.054967        -2.335246
 H         1.261502        -0.080848        -1.582970
 H         2.155641         0.910008        -0.346157
 H         1.987696        -0.995380        -0.132995
 H        -2.685663        -0.991816         1.136661
 H        -2.628498         1.697660         0.731514
 H        -3.294421        -0.132486        -1.707904
 H        -2.820608        -2.813848        -0.256629
 H        -3.948988        -3.981785        -2.164297
 H        -3.909002        -2.480832        -3.040864
 H        -2.229249        -3.395687        -2.630669
