19
Iteration:  2532charge 0 multiplicity 1
 C         1.372699        -0.019672        -0.455548
 C        -0.060270        -0.138785        -0.173662
 C        -1.144906        -0.133970         0.342028
 C        -2.613171        -0.248269         0.416732
 O        -3.303112         1.069160         0.686836
 C        -3.222233        -0.858578        -0.873133
 O        -4.328258        -1.611318        -0.547715
 C        -3.191225        -2.288212        -1.117136
 C        -3.313088        -2.983656        -2.460030
 H         2.073287        -0.708379         0.143786
 H         1.638970        -0.007654        -1.529337
 H         1.731481         0.977622        -0.067312
 H        -2.969263        -0.823298         1.234847
 H        -2.494609         1.621393         0.804225
 H        -3.147000        -0.115927        -1.646721
 H        -2.644806        -2.747729        -0.368154
 H        -3.854578        -3.907745        -2.175976
 H        -3.923493        -2.260078        -3.095792
 H        -2.355918        -3.185798        -2.948291
