19
Iteration:   157
 C         1.407739         0.266170        -0.047848
 C        -0.006240         0.233823        -0.239385
 C        -1.116818        -0.145015         0.197627
 C        -2.591639        -0.165509         0.229707
 O        -3.160490         1.222023         0.114403
 C        -3.077088        -1.070334        -0.946331
 O        -4.383066        -1.429651        -0.997086
 C        -3.452855        -2.537604        -0.617229
 C        -3.402848        -3.536065        -1.732723
 H         1.785653         1.276606        -0.073392
 H         1.511898        -0.294193         0.821136
 H         1.994357        -0.366116        -0.784472
 H        -2.860765        -0.525812         1.219337
 H        -2.778709         1.534869        -0.717203
 H        -2.561799        -0.647200        -1.870259
 H        -3.511627        -2.699227         0.461155
 H        -4.197467        -4.297162        -1.823350
 H        -3.467330        -2.982449        -2.674295
 H        -2.449020        -4.090099        -1.864987
