19
Iteration:  3585
 C         1.525236         0.258909        -0.212232
 C         0.171238        -0.039746        -0.060633
 C        -1.037832        -0.098474         0.144711
 C        -2.428054        -0.464249         0.409547
 O        -3.207142         0.709943         0.861346
 C        -3.175292        -0.867583        -0.921831
 O        -4.386465        -1.540198        -0.509034
 C        -3.360003        -2.317401        -1.248135
 C        -3.804299        -2.780946        -2.657693
 H         2.072935        -0.694032         0.215518
 H         1.850849         0.216663        -1.270463
 H         1.808932         1.216055         0.213285
 H        -2.533333        -1.276356         1.064235
 H        -2.704638         1.456185         0.443038
 H        -3.389226        -0.018363        -1.526468
 H        -2.729655        -2.897034        -0.600446
 H        -4.574471        -3.566041        -2.531477
 H        -4.179474        -1.964943        -3.222184
 H        -2.920210        -3.366155        -3.130529
