19
Iteration:  3505
 C         1.537914         0.391494        -0.234364
 C         0.085837         0.106067        -0.096883
 C        -1.010517        -0.419297         0.046610
 C        -2.489317        -0.482953         0.466291
 O        -2.935110         0.788518         0.829864
 C        -3.279918        -0.895797        -0.789940
 O        -4.631176        -1.466841        -0.656802
 C        -3.501416        -2.313720        -1.163668
 C        -3.567529        -2.874879        -2.613073
 H         2.163860        -0.672387        -0.523733
 H         1.627667         1.332754        -0.860539
 H         1.838266         0.620101         0.759985
 H        -2.593546        -1.268716         1.167989
 H        -2.206954         1.114219         1.414888
 H        -3.175327        -0.037294        -1.521198
 H        -3.320642        -3.264322        -0.448792
 H        -4.044568        -3.821061        -2.854637
 H        -4.031927        -2.094166        -3.368486
 H        -2.607243        -3.074734        -3.187010
