19
Iteration:  2430
 C         1.368493        -0.009759        -0.483332
 C        -0.049627        -0.127057        -0.259079
 C        -1.213121        -0.161728         0.139966
 C        -2.571107        -0.214873         0.445631
 O        -3.183488         1.003657         0.791185
 C        -3.299626        -0.816309        -0.733178
 O        -4.530917        -1.627341        -0.737462
 C        -3.260078        -2.289550        -0.943526
 C        -3.059917        -2.904988        -2.349994
 H         1.875428        -0.753895        -1.102103
 H         1.494980         1.018254        -1.052197
 H         1.980691         0.019738         0.546521
 H        -2.809791        -0.891209         1.245492
 H        -2.816510         1.555406         0.070142
 H        -3.252969        -0.038507        -1.558017
 H        -3.175166        -3.096438        -0.108533
 H        -3.580743        -3.913421        -2.480465
 H        -3.393049        -2.185839        -3.149936
 H        -1.989952        -3.327808        -2.339402
