19
Iteration:  1744
 C         1.389255        -0.107499        -0.290606
 C        -0.068133         0.113212        -0.115820
 C        -1.253379        -0.101209         0.164563
 C        -2.636529        -0.176077         0.364950
 O        -3.100682         1.209250         0.375428
 C        -3.272802        -0.959975        -0.809547
 O        -4.315803        -1.788045        -0.342810
 C        -3.147400        -2.371270        -1.060734
 C        -3.387199        -2.952209        -2.424931
 H         1.618733         0.687111        -1.003129
 H         1.804996         0.088912         0.716951
 H         1.650416        -1.067439        -0.756800
 H        -3.145600        -0.743438         1.103288
 H        -2.211389         1.666119         0.320005
 H        -3.767691        -0.431186        -1.594811
 H        -2.380837        -2.882906        -0.421867
 H        -3.984014        -3.857877        -2.141990
 H        -4.074738        -2.309942        -2.990718
 H        -2.435951        -3.109055        -2.960113
