19
Iteration:  2880
 C         1.479541         0.233546        -0.368362
 C         0.074449        -0.048142        -0.229634
 C        -1.066396        -0.206236         0.143759
 C        -2.459891        -0.416680         0.353783
 O        -3.262384         0.782246         1.005073
 C        -3.106661        -0.903234        -0.843601
 O        -4.471940        -1.332290        -0.798280
 C        -3.418462        -2.360892        -1.071805
 C        -3.442260        -2.973302        -2.420386
 H         1.828891         0.175333        -1.330710
 H         1.575171         1.235390         0.104045
 H         2.181461        -0.310126         0.412097
 H        -2.624728        -1.053740         1.144888
 H        -3.384977         1.537014         0.395067
 H        -2.678512        -0.431599        -1.693911
 H        -3.534137        -2.906434        -0.098647
 H        -4.107828        -3.791166        -2.449454
 H        -3.795656        -2.180111        -3.026204
 H        -2.542022        -3.261721        -2.803789
