19
Iteration:   613
 C         1.368798        -0.018194        -0.247960
 C        -0.054216        -0.060561        -0.184480
 C        -1.166256        -0.132727         0.241690
 C        -2.639522        -0.048953         0.310374
 O        -3.419927         1.224809         0.019122
 C        -3.111261        -0.961493        -0.822283
 O        -4.405464        -1.457038        -0.852651
 C        -3.136865        -2.438410        -0.693071
 C        -3.122993        -3.294475        -1.901948
 H         1.837650         0.979662        -0.078406
 H         1.562254        -0.791729         0.600234
 H         1.920185        -0.345945        -1.099275
 H        -3.120352        -0.321556         1.300445
 H        -3.233936         1.797804         0.853377
 H        -2.675968        -0.396815        -1.742472
 H        -3.222310        -2.974467         0.296443
 H        -3.953210        -3.980517        -1.899711
 H        -3.424747        -2.720590        -2.753291
 H        -2.248270        -3.942810        -1.877838
