19
Iteration:  1114
 C         1.438016        -0.190400        -0.344888
 C         0.017580        -0.068399        -0.024708
 C        -1.197532         0.031765         0.126861
 C        -2.654778        -0.071406         0.278410
 O        -3.298090         1.268868         0.363412
 C        -3.258153        -0.928205        -0.894534
 O        -4.458663        -1.613045        -0.700790
 C        -3.240245        -2.349066        -0.860912
 C        -3.039666        -3.190416        -2.042602
 H         2.153211         0.544489         0.049142
 H         1.767881        -1.305243        -0.186453
 H         1.506306        -0.130679        -1.478140
 H        -2.784517        -0.360259         1.325385
 H        -4.300445         1.193208         0.331937
 H        -3.297490        -0.268996        -1.759339
 H        -2.906873        -2.734721         0.093116
 H        -3.607739        -4.104066        -1.983068
 H        -3.308420        -2.601877        -2.920718
 H        -2.006653        -3.400249        -2.210573
