19
Iteration:  2605
 C         1.589523        -0.008800        -0.236345
 C         0.064100        -0.028410        -0.200278
 C        -1.106297         0.084849         0.028533
 C        -2.566287        -0.286609         0.286822
 O        -3.255541         0.950658         0.665858
 C        -3.284893        -0.922960        -0.771555
 O        -4.520919        -1.690655        -0.482450
 C        -3.320423        -2.346585        -1.066049
 C        -3.365795        -2.880940        -2.519593
 H         2.001599         0.083943         0.699174
 H         2.145000        -0.744615        -0.870400
 H         1.907676         0.962794        -0.744016
 H        -2.658580        -1.059672         1.151607
 H        -2.854951         1.373383         1.439992
 H        -3.484378        -0.090257        -1.508050
 H        -2.902161        -3.009930        -0.194575
 H        -3.962915        -3.790046        -2.429386
 H        -3.701971        -2.143921        -3.298773
 H        -2.302335        -2.955526        -2.717931
