19
Iteration:  4845
 C         1.369637         0.366792        -0.546549
 C         0.021411        -0.156491        -0.117016
 C        -0.999778        -0.581228         0.453026
 C        -2.482290        -0.716246         0.600716
 O        -3.050689         0.528770         1.201439
 C        -3.217835        -0.869510        -0.771251
 O        -4.489058        -1.228220        -0.830307
 C        -3.439935        -2.194280        -1.317583
 C        -3.463324        -2.476474        -2.800546
 H         1.963594        -0.133985         0.282860
 H         1.765887         0.413530        -1.595251
 H         1.556039         1.397394        -0.236407
 H        -2.742256        -1.430804         1.293449
 H        -2.731419         1.293655         0.706337
 H        -3.034963         0.044362        -1.531048
 H        -3.360178        -3.124533        -0.669032
 H        -4.039145        -3.409917        -2.923556
 H        -3.989271        -1.742147        -3.455637
 H        -2.312882        -2.489191        -3.076771
