19
Iteration:  1297
 C         1.527845         0.170823        -0.172273
 C         0.102533         0.033004        -0.017844
 C        -1.106731        -0.083070         0.063071
 C        -2.570571        -0.227092         0.254795
 O        -3.148015         1.141494         0.238609
 C        -3.211863        -0.998308        -0.905725
 O        -4.436461        -1.550129        -0.481960
 C        -3.351623        -2.449177        -0.949803
 C        -3.477151        -3.180081        -2.214390
 H         1.707564         0.514357        -1.249176
 H         1.861179         0.982748         0.449025
 H         2.084085        -0.752108         0.198237
 H        -2.593053        -0.648750         1.311292
 H        -4.000367         1.161350         0.627601
 H        -3.205736        -0.362557        -1.808568
 H        -2.952609        -3.120203        -0.128792
 H        -4.200588        -3.978056        -1.862851
 H        -3.815294        -2.526354        -3.098157
 H        -2.583939        -3.799665        -2.527404
