19
Iteration:  2252charge 0 multiplicity 1
 C         1.518580         0.286561        -0.202255
 C         0.078642        -0.025193         0.043187
 C        -1.110812        -0.184614        -0.068920
 C        -2.521456        -0.268019         0.225584
 O        -3.011914         1.039749         0.511823
 C        -3.357050        -0.913845        -0.865414
 O        -4.512302        -1.681456        -0.437247
 C        -3.378070        -2.365071        -1.009130
 C        -3.480610        -3.050073        -2.457943
 H         1.445325         1.316679        -0.757096
 H         2.193674         0.320099         0.674285
 H         1.834794        -0.419342        -0.980983
 H        -2.667932        -0.859185         1.081825
 H        -2.650838         1.217241         1.371482
 H        -3.581518        -0.142794        -1.598847
 H        -3.027347        -3.052808        -0.193953
 H        -4.147361        -3.843783        -2.168877
 H        -3.645423        -2.416414        -3.349186
 H        -2.463785        -3.495113        -2.534313
