19
Iteration:  4364charge 0 multiplicity 1
 C         1.489051        -0.007888        -0.515527
 C         0.011426        -0.026476        -0.165807
 C        -1.102076        -0.260860         0.208138
 C        -2.552836        -0.457851         0.520648
 O        -3.170079         0.648405         1.249533
 C        -3.314314        -0.669944        -0.855912
 O        -4.552379        -1.614910        -0.735025
 C        -3.332885        -2.181063        -1.228397
 C        -3.326275        -2.530442        -2.703039
 H         1.890937         0.880062         0.078923
 H         2.081607        -0.908312        -0.258170
 H         1.684526         0.120121        -1.566747
 H        -2.562809        -1.460608         1.095601
 H        -2.456771         1.228793         1.544440
 H        -3.408396         0.078049        -1.570252
 H        -2.613335        -2.815599        -0.567001
 H        -3.711152        -3.531426        -2.949223
 H        -3.757055        -1.841178        -3.415444
 H        -2.175279        -2.566083        -3.004891
