19
Iteration:  4760charge 0 multiplicity 1
 C         1.383512         0.203784        -0.520768
 C        -0.001427        -0.177087        -0.200305
 C        -1.124921        -0.397615         0.266539
 C        -2.530995        -0.608727         0.605543
 O        -3.118045         0.511493         1.295775
 C        -3.225221        -0.739055        -0.754820
 O        -4.554655        -1.330594        -0.745128
 C        -3.314848        -2.119859        -1.285044
 C        -3.302799        -2.534627        -2.847859
 H         2.113220        -0.687729        -0.759426
 H         1.284077         0.673564        -1.550107
 H         1.854215         0.855779         0.193863
 H        -2.704506        -1.596957         1.277383
 H        -2.413330         1.189398         1.367879
 H        -3.145250         0.234103        -1.336485
 H        -3.203568        -2.858008        -0.494244
 H        -4.051183        -3.246734        -3.239926
 H        -3.327542        -1.707150        -3.636499
 H        -2.357289        -3.168315        -3.046779
