19
Iteration:  1660
 C         1.458182         0.121649        -0.350778
 C         0.057611        -0.076000         0.036098
 C        -1.109999        -0.198390         0.002527
 C        -2.558811        -0.196767         0.263700
 O        -3.201851         1.073406         0.431405
 C        -3.302207        -0.881945        -0.877405
 O        -4.498447        -1.559651        -0.473421
 C        -3.365605        -2.373381        -0.869177
 C        -3.257234        -3.067567        -2.313825
 H         2.053125         1.075285        -0.164365
 H         2.154097        -0.627168        -0.080852
 H         1.497711        -0.071252        -1.453720
 H        -2.816061        -0.938533         1.110128
 H        -3.097987         1.417618         1.325472
 H        -3.360265        -0.466617        -1.860201
 H        -2.697288        -2.673738         0.012567
 H        -3.819270        -3.991807        -2.466853
 H        -3.642527        -2.462285        -3.091230
 H        -2.244989        -3.291626        -2.629338
