19
Iteration:  2956
 C         1.434373         0.234001        -0.473074
 C         0.044026        -0.055449        -0.020459
 C        -1.109375        -0.298778         0.296161
 C        -2.609902        -0.399508         0.443503
 O        -3.128434         0.974283         0.845681
 C        -3.154043        -0.911852        -0.857996
 O        -4.424915        -1.523903        -0.687891
 C        -3.369575        -2.412941        -1.116598
 C        -3.442902        -2.841861        -2.573616
 H         1.866262        -0.506862        -1.032549
 H         1.442663         1.206312        -1.097957
 H         2.077770         0.457467         0.548711
 H        -2.889070        -1.074952         1.313911
 H        -2.317825         1.472473         0.649754
 H        -3.169960        -0.109638        -1.579653
 H        -3.116974        -3.124325        -0.239024
 H        -4.338040        -3.490128        -2.428410
 H        -3.655330        -2.154887        -3.427672
 H        -2.664379        -3.532955        -2.874633
