19
Iteration:  4722
 C         1.488677         0.021802        -0.509626
 C        -0.002881        -0.071888        -0.210879
 C        -1.117575        -0.150714         0.259173
 C        -2.528179        -0.556229         0.532863
 O        -3.220229         0.508981         1.278767
 C        -3.198785        -0.741986        -0.795578
 O        -4.489504        -1.550570        -0.765183
 C        -3.372030        -2.195727        -1.184385
 C        -3.367468        -2.381491        -2.798652
 H         1.700362        -0.935448        -0.896385
 H         1.749099         0.765943        -1.264036
 H         2.213434         0.227543         0.355591
 H        -2.479864        -1.434521         1.047113
 H        -2.579712         1.227212         1.264542
 H        -3.200892         0.119086        -1.476120
 H        -2.900601        -3.052447        -0.699536
 H        -4.179153        -3.093396        -2.960628
 H        -3.532431        -1.397928        -3.195224
 H        -2.373506        -2.744986        -3.164407
