19
Iteration:  2520charge 0 multiplicity 1
 C         1.397721         0.038184        -0.462241
 C        -0.024382        -0.196296        -0.171573
 C        -1.191000        -0.210315         0.290573
 C        -2.624318        -0.241055         0.522175
 O        -3.301165         1.112388         0.690973
 C        -3.149425        -0.814142        -0.827527
 O        -4.413489        -1.594907        -0.579812
 C        -3.119702        -2.316201        -1.111974
 C        -3.306812        -2.970857        -2.429288
 H         1.898703        -0.943399        -0.147670
 H         1.545727        -0.007290        -1.596032
 H         1.756132         1.050759        -0.014236
 H        -2.838324        -0.899215         1.307049
 H        -2.864155         1.975133         0.545341
 H        -3.304858        -0.234132        -1.743974
 H        -2.639919        -3.014824        -0.454987
 H        -3.770234        -4.002336        -2.545848
 H        -3.965277        -2.476793        -3.267627
 H        -2.280096        -3.081018        -2.846662
