19
Iteration:  3613
 C         1.585658         0.153591        -0.245342
 C         0.181365         0.118866        -0.109761
 C        -1.013379        -0.081988         0.196370
 C        -2.481357        -0.314188         0.396388
 O        -3.149539         0.754613         0.977190
 C        -3.166359        -0.928012        -0.900886
 O        -4.449264        -1.654632        -0.552303
 C        -3.427461        -2.348381        -1.207495
 C        -3.747711        -2.793822        -2.766974
 H         1.917392        -0.518438         0.489668
 H         1.996323        -0.264664        -1.180880
 H         1.999629         1.232523         0.015315
 H        -2.654124        -1.224966         1.111955
 H        -3.063498         1.519893         0.373388
 H        -3.389433        -0.088153        -1.618446
 H        -2.774277        -3.016237        -0.581650
 H        -4.562212        -3.481964        -2.602991
 H        -4.184763        -1.910458        -3.298835
 H        -2.974667        -3.411140        -3.115512
