19
Iteration:  4537charge 0 multiplicity 1
 C         1.451493         0.053703        -0.349589
 C         0.012621        -0.244116        -0.070442
 C        -1.202360        -0.282123         0.193844
 C        -2.601105        -0.422392         0.538784
 O        -3.034611         0.817434         0.930622
 C        -3.436582        -0.847399        -0.715087
 O        -4.274492        -1.937895        -0.421995
 C        -3.238033        -2.121521        -1.414521
 C        -3.553416        -2.227538        -2.894299
 H         1.783976         0.697863        -1.164230
 H         1.745863         0.455521         0.606533
 H         2.052842        -0.891786        -0.463793
 H        -2.689490        -1.165651         1.439324
 H        -2.239431         1.363325         0.982483
 H        -3.826345         0.060292        -1.105446
 H        -2.354613        -2.530067        -1.144405
 H        -3.715302        -3.231166        -3.186308
 H        -4.360540        -1.684330        -3.238528
 H        -2.749243        -1.960403        -3.585698
