19
Iteration:  3348charge 0 multiplicity 1
 C         1.500193         0.067684        -0.469207
 C         0.112274        -0.096791        -0.175616
 C        -1.032676        -0.056075         0.244411
 C        -2.483254        -0.394615         0.462800
 O        -3.349702         0.719728         0.870804
 C        -3.239328        -0.869805        -0.744668
 O        -4.459738        -1.546186        -0.657301
 C        -3.327512        -2.242021        -1.139384
 C        -3.443616        -2.692858        -2.569213
 H         1.676875         0.599236        -1.464623
 H         2.128498         0.568580         0.302985
 H         2.033083        -0.953165        -0.470991
 H        -2.425814        -1.027438         1.287665
 H        -2.879197         1.532973         1.165084
 H        -3.487886        -0.262380        -1.577241
 H        -2.984003        -3.065066        -0.414273
 H        -4.004732        -3.674688        -2.646410
 H        -3.803859        -2.041419        -3.314481
 H        -2.449933        -2.928910        -2.861487
