19
Iteration:   112
 C         1.572560         0.297375        -0.125662
 C         0.141060        -0.005716         0.105319
 C        -1.130369        -0.073281         0.065927
 C        -2.646366        -0.072156         0.142091
 O        -3.279102         1.173631         0.096977
 C        -3.110862        -1.017098        -0.927539
 O        -4.450861        -1.405058        -0.907639
 C        -3.479349        -2.479399        -0.711977
 C        -3.373297        -3.615332        -1.759486
 H         1.750905         1.228096         0.374633
 H         2.176173        -0.492521         0.191880
 H         1.942369         0.572750        -1.189132
 H        -2.977301        -0.493795         1.051474
 H        -2.951983         1.758775        -0.623257
 H        -2.748963        -0.971650        -1.998091
 H        -3.488647        -2.648327         0.332328
 H        -4.111401        -4.371501        -1.639704
 H        -3.352823        -3.179794        -2.771813
 H        -2.353863        -3.983099        -1.520758
