19
Iteration:  3176
 C         1.471342        -0.065095        -0.430881
 C         0.027486        -0.016549        -0.028841
 C        -1.127425        -0.122428         0.307500
 C        -2.574947        -0.248619         0.470259
 O        -3.172388         1.021717         0.671252
 C        -3.368141        -0.929645        -0.716426
 O        -4.377079        -1.818777        -0.438650
 C        -3.200994        -2.274472        -1.283346
 C        -3.445833        -2.646757        -2.717080
 H         2.382846         0.504197         0.159790
 H         1.704330        -1.119133        -0.296693
 H         1.568413         0.359966        -1.520327
 H        -2.611152        -0.758832         1.389639
 H        -2.925445         1.287334         1.562223
 H        -3.702074        -0.088839        -1.346284
 H        -2.836917        -3.194408        -0.766913
 H        -3.916681        -3.737901        -2.788104
 H        -3.953003        -1.963682        -3.428681
 H        -2.404373        -2.780260        -3.166981
