19
Iteration:  4830charge 0 multiplicity 1
 C         1.276535         0.317797        -0.471271
 C        -0.013003        -0.110667        -0.089667
 C        -1.042366        -0.564934         0.375605
 C        -2.463650        -0.629893         0.631599
 O        -2.952540         0.518512         1.229879
 C        -3.068463        -0.850208        -0.766059
 O        -4.575143        -1.274855        -0.825367
 C        -3.518868        -2.124791        -1.359147
 C        -3.394046        -2.534651        -2.818423
 H         2.131310        -0.207043        -0.188851
 H         1.149286         0.181483        -1.539593
 H         1.336138         1.430006        -0.275733
 H        -2.827193        -1.553028         1.284195
 H        -2.584120         1.279926         0.732858
 H        -2.742019        -0.090052        -1.427310
 H        -3.270467        -2.936051        -0.648562
 H        -3.844757        -3.482810        -3.120239
 H        -3.914666        -1.831802        -3.424683
 H        -2.409637        -2.619354        -3.148883
