19
Iteration:  3571charge 0 multiplicity 1
 C         1.591171         0.278000        -0.246314
 C         0.140853        -0.037838         0.014422
 C        -1.074159        -0.251422         0.058803
 C        -2.479496        -0.393334         0.331058
 O        -3.197376         0.673523         0.840625
 C        -3.167489        -0.867447        -0.860083
 O        -4.400202        -1.570581        -0.561623
 C        -3.358832        -2.229169        -1.208510
 C        -3.767422        -2.769116        -2.569505
 H         2.395594        -0.388314         0.185018
 H         1.761353         0.548724        -1.293352
 H         1.830249         1.047003         0.361491
 H        -2.520279        -1.161420         1.122587
 H        -2.763139         1.528250         0.772943
 H        -3.083954        -0.226305        -1.720396
 H        -2.993948        -3.081194        -0.669061
 H        -4.549570        -3.480195        -2.445201
 H        -4.278461        -1.907713        -3.058855
 H        -2.957236        -3.179143        -3.225086
