19
Iteration:  4741charge 0 multiplicity 1
 C         1.343144         0.080501        -0.518857
 C        -0.006309        -0.119205        -0.203724
 C        -1.139136        -0.304220         0.177481
 C        -2.510499        -0.515160         0.546126
 O        -3.190750         0.497694         1.306317
 C        -3.193027        -0.815897        -0.758929
 O        -4.441243        -1.376681        -0.653280
 C        -3.365672        -2.121524        -1.364648
 C        -3.287743        -2.479859        -2.797856
 H         1.869453        -0.805865        -0.804890
 H         1.581668         0.711825        -1.343737
 H         1.704338         0.485778         0.449741
 H        -2.666809        -1.425957         1.196523
 H        -2.603261         1.249729         1.477764
 H        -3.099898        -0.112359        -1.500847
 H        -2.987298        -2.956261        -0.780893
 H        -4.135344        -3.165841        -3.023828
 H        -3.318448        -1.507354        -3.362320
 H        -2.434759        -3.000808        -2.968224
