19
Iteration:    49charge 0 multiplicity 1
 C         1.448878         0.194461        -0.067189
 C         0.039666         0.168625        -0.054479
 C        -1.186006        -0.030087         0.064670
 C        -2.615603        -0.139043         0.163419
 O        -3.232426         1.356001         0.050259
 C        -3.049460        -1.087111        -0.915765
 O        -4.424441        -1.444489        -0.819328
 C        -3.440081        -2.515971        -0.716219
 C        -3.371975        -3.650228        -1.816835
 H         1.719477         0.082952         0.960435
 H         1.888129        -0.732981        -0.371123
 H         1.885422         1.045497        -0.623616
 H        -2.868474        -0.371397         1.237426
 H        -2.425572         1.862749        -0.295255
 H        -2.568526        -0.818306        -1.911233
 H        -3.255946        -2.873701         0.408108
 H        -4.053612        -4.507426        -1.663746
 H        -3.494117        -3.325525        -2.880199
 H        -2.339539        -4.094752        -1.751596
