19
Iteration:  3877charge 0 multiplicity 1
 C         1.391273        -0.154100        -0.587755
 C         0.041482        -0.020584        -0.087325
 C        -1.152633        -0.125898         0.152947
 C        -2.572855        -0.360407         0.455220
 O        -3.272103         0.808255         1.295209
 C        -3.282052        -0.772902        -0.891759
 O        -4.435707        -1.594730        -0.689354
 C        -3.257882        -2.216010        -1.211838
 C        -3.212072        -2.665743        -2.637577
 H         1.501970         0.751907        -1.135386
 H         2.082273        -0.157905         0.279933
 H         1.523075        -1.071690        -1.257745
 H        -2.882822        -1.185289         1.169332
 H        -2.883274         1.665867         1.005362
 H        -3.415220        -0.066921        -1.650708
 H        -2.625984        -2.864716        -0.625524
 H        -3.711062        -3.657528        -2.716785
 H        -3.692991        -2.120997        -3.404506
 H        -2.147295        -2.808347        -2.914183
