19
Iteration:  3653
 C         1.516048         0.142394        -0.252198
 C         0.079994        -0.005263        -0.041487
 C        -1.119131        -0.081367        -0.027816
 C        -2.431919        -0.407725         0.401431
 O        -3.085021         0.732879         0.968772
 C        -3.251742        -0.859534        -0.858994
 O        -4.541727        -1.637663        -0.541070
 C        -3.359679        -2.281013        -1.197033
 C        -3.533410        -2.709739        -2.606847
 H         1.981701        -0.315743         0.655884
 H         1.866363        -0.569995        -1.028862
 H         1.820007         1.188756        -0.693057
 H        -2.426014        -1.177419         1.191422
 H        -3.015679         1.463975         0.322485
 H        -3.364950        -0.121400        -1.743613
 H        -2.934554        -3.039119        -0.454370
 H        -4.230229        -3.586657        -2.854986
 H        -3.924053        -1.849657        -3.268192
 H        -2.654069        -2.981632        -3.231833
