19
Iteration:  1020charge 0 multiplicity 1
 C         1.314059        -0.136617        -0.343965
 C        -0.037566         0.092098        -0.025759
 C        -1.209819        -0.032941         0.182024
 C        -2.634390        -0.015324         0.344164
 O        -3.137539         1.295458         0.400693
 C        -3.163108        -0.974832        -0.858712
 O        -4.476834        -1.535204        -0.812078
 C        -3.326959        -2.459332        -0.863357
 C        -3.043426        -3.321224        -2.064875
 H         1.975722        -0.325736         0.528785
 H         1.341510        -0.828113        -1.169567
 H         1.540827         0.841897        -0.773752
 H        -2.917499        -0.609500         1.275838
 H        -3.963839         1.299214        -0.121335
 H        -2.921485        -0.544826        -1.866751
 H        -3.112914        -3.049977         0.036109
 H        -3.776872        -4.198154        -1.912976
 H        -3.280524        -2.765404        -3.026443
 H        -1.946483        -3.667805        -2.105545
