19
Iteration:   912
 C         1.561764         0.173863        -0.043090
 C         0.068547         0.202133        -0.046810
 C        -1.102930        -0.095595         0.102324
 C        -2.555463        -0.133883         0.177043
 O        -3.098661         1.265968         0.299388
 C        -3.211344        -0.980803        -0.895026
 O        -4.596027        -1.635448        -0.783708
 C        -3.351432        -2.481620        -0.860488
 C        -3.412800        -3.401186        -2.054847
 H         2.024286        -0.852132        -0.053146
 H         1.997312         0.414075        -0.950188
 H         2.111733         0.831541         0.668942
 H        -2.821933        -0.707056         1.029906
 H        -4.020680         1.394685         0.087351
 H        -3.020023        -0.418634        -1.808918
 H        -3.076576        -3.081105        -0.004687
 H        -3.979733        -4.234233        -1.956974
 H        -3.699113        -2.829657        -2.910905
 H        -2.464415        -3.868548        -2.193539
