19
Iteration:  3944charge 0 multiplicity 1
 C         1.455713        -0.003175        -0.409079
 C         0.039478        -0.018432        -0.211421
 C        -1.065002        -0.338995         0.163842
 C        -2.551000        -0.406738         0.512070
 O        -3.245994         0.851659         1.060506
 C        -3.329108        -0.803253        -0.803993
 O        -4.502970        -1.600222        -0.598090
 C        -3.263040        -2.223657        -1.213329
 C        -3.333902        -2.632998        -2.745131
 H         1.673893         0.389452        -1.379160
 H         1.897391         0.678223         0.356020
 H         2.104401        -0.864383        -0.348491
 H        -2.561738        -1.256212         1.237802
 H        -2.489932         1.441409         1.265115
 H        -3.414923         0.085561        -1.468062
 H        -2.767690        -2.897687        -0.453843
 H        -3.496992        -3.740793        -2.906198
 H        -4.150065        -2.225617        -3.281977
 H        -2.367124        -2.397480        -3.198628
