19
Iteration:   622
 C         1.369131         0.053509        -0.265552
 C         0.002141        -0.114717        -0.108778
 C        -1.202430        -0.109931         0.207717
 C        -2.695761        -0.083204         0.315392
 O        -3.388936         1.175524        -0.002588
 C        -3.061380        -0.924403        -0.813266
 O        -4.397763        -1.468510        -0.840380
 C        -3.231627        -2.392361        -0.750874
 C        -3.147323        -3.284756        -1.865215
 H         1.864025         1.032577        -0.113285
 H         1.794786        -0.494089         0.733992
 H         1.692245        -0.515046        -1.174369
 H        -2.941311        -0.690966         1.292320
 H        -3.028468         1.765455         0.768162
 H        -2.662491        -0.381121        -1.726123
 H        -3.124370        -2.919828         0.317083
 H        -4.002922        -3.947084        -1.635350
 H        -3.180858        -2.868981        -2.849361
 H        -2.333105        -3.892558        -2.067536
