19
Iteration:  2107
 C         1.590497         0.245601        -0.293282
 C         0.102732         0.098292        -0.007645
 C        -1.085845        -0.062334         0.132529
 C        -2.464662        -0.342741         0.232866
 O        -3.147705         0.926538         0.609418
 C        -3.233458        -0.912384        -0.884174
 O        -4.470388        -1.491824        -0.579401
 C        -3.470426        -2.391626        -0.993206
 C        -3.519166        -3.184131        -2.352494
 H         2.192181         0.442150         0.687049
 H         1.866536        -0.719783        -0.680903
 H         1.700557         1.085733        -1.010360
 H        -2.503806        -0.678593         1.328476
 H        -3.608197         1.251087        -0.221761
 H        -3.215830        -0.190137        -1.767359
 H        -3.131933        -3.179447        -0.335227
 H        -4.321365        -3.945310        -2.198330
 H        -3.642369        -2.541525        -3.230292
 H        -2.587107        -3.766270        -2.339247
