19
Iteration:  3515charge 0 multiplicity 1
 C         1.508074         0.408557        -0.210827
 C         0.086559         0.061215        -0.080820
 C        -1.040462        -0.338892         0.096183
 C        -2.397935        -0.569023         0.434691
 O        -2.945001         0.835410         0.838641
 C        -3.282659        -0.907298        -0.789570
 O        -4.594959        -1.496296        -0.628559
 C        -3.591411        -2.295506        -1.243465
 C        -3.575896        -2.903011        -2.672046
 H         2.028577        -0.587908        -0.533099
 H         1.901607         1.079996        -0.990544
 H         1.946454         0.728132         0.728266
 H        -2.442874        -1.263706         1.270443
 H        -2.233333         1.251897         1.374268
 H        -3.199337        -0.196173        -1.662652
 H        -3.141369        -2.915711        -0.356966
 H        -4.131515        -3.839175        -2.671363
 H        -4.154072        -2.108426        -3.282087
 H        -2.522799        -2.937462        -2.922300
