19
Iteration:  3328
 C         1.502709         0.009115        -0.449257
 C         0.085555        -0.121784        -0.172211
 C        -1.122294        -0.114448         0.136690
 C        -2.585605        -0.328789         0.462116
 O        -3.289799         0.778558         0.934484
 C        -3.205170        -0.787901        -0.855975
 O        -4.479541        -1.610079        -0.554307
 C        -3.265151        -2.235046        -1.131121
 C        -3.370518        -2.738160        -2.560056
 H         1.429979         0.862755        -1.261417
 H         2.009857         0.493976         0.372860
 H         1.972335        -0.810515        -0.766274
 H        -2.810480        -1.266267         1.100549
 H        -2.666879         1.442288         1.285418
 H        -3.181142        -0.149132        -1.760361
 H        -2.917021        -2.938013        -0.315731
 H        -3.996651        -3.624706        -2.931905
 H        -3.767074        -1.919564        -3.233463
 H        -2.351648        -2.875108        -2.996889
