19
Iteration:  3466charge 0 multiplicity 1
 C         1.434543         0.365177        -0.289946
 C         0.121372        -0.181569        -0.116092
 C        -1.077663        -0.301384         0.080461
 C        -2.506385        -0.423603         0.370332
 O        -3.000594         0.727905         0.870397
 C        -3.164784        -0.854960        -0.896038
 O        -4.553217        -1.460869        -0.652197
 C        -3.484708        -2.312961        -1.095342
 C        -3.513721        -2.798606        -2.572118
 H         2.023497         0.063461        -1.000683
 H         1.304425         1.415652        -0.518136
 H         1.952670         0.458426         0.707888
 H        -2.808191        -1.251037         1.134815
 H        -2.420587         1.092985         1.539591
 H        -3.267267        -0.159949        -1.681298
 H        -3.184164        -2.938897        -0.336060
 H        -4.300694        -3.546632        -2.571445
 H        -3.723398        -1.970419        -3.135645
 H        -2.525098        -3.237605        -2.683681
