19
Iteration:   734
 C         1.407635         0.381954         0.053570
 C         0.111910        -0.139762        -0.144779
 C        -1.076972        -0.179620         0.071521
 C        -2.594489        -0.152028         0.127275
 O        -3.198633         1.129531         0.184210
 C        -3.148355        -0.974151        -0.968359
 O        -4.465689        -1.388713        -0.689549
 C        -3.372977        -2.474832        -0.772640
 C        -3.387887        -3.434021        -1.998933
 H         1.809262         0.701827        -0.947665
 H         1.378078         1.193153         0.905421
 H         2.186015        -0.374220         0.241192
 H        -2.794054        -0.752145         1.101982
 H        -2.614981         1.761162        -0.219021
 H        -3.107092        -0.765969        -2.088240
 H        -3.402764        -3.010615         0.241522
 H        -4.105275        -4.181574        -1.975387
 H        -3.719534        -2.834299        -2.818151
 H        -2.375907        -3.796164        -2.063726
