19
Iteration:   895charge 0 multiplicity 1
 C         1.526900         0.202389        -0.044460
 C         0.118469         0.160442         0.091526
 C        -1.079346        -0.057060         0.011154
 C        -2.540934        -0.138303         0.211090
 O        -3.113390         1.174088         0.171891
 C        -3.245206        -1.018174        -0.980541
 O        -4.507205        -1.560860        -0.664343
 C        -3.418020        -2.445273        -0.879282
 C        -3.403717        -3.387205        -2.084554
 H         1.909201        -0.839939        -0.124358
 H         1.949258         0.810630        -0.961512
 H         1.911962         0.765673         0.833875
 H        -2.695500        -0.655854         1.261416
 H        -3.913759         0.964800         0.741317
 H        -3.146874        -0.557539        -1.988936
 H        -3.199715        -2.983127         0.103462
 H        -4.319971        -4.182499        -1.909604
 H        -3.779938        -2.930403        -3.045658
 H        -2.384748        -3.872369        -2.227551
