19
Iteration:  4525charge 0 multiplicity 1
 C         1.420908         0.025428        -0.297717
 C         0.018653        -0.236280        -0.138418
 C        -1.102051        -0.324222         0.282009
 C        -2.570593        -0.395933         0.425211
 O        -3.083364         0.882659         0.991022
 C        -3.431493        -0.817206        -0.722797
 O        -4.261803        -1.962785        -0.417968
 C        -3.214212        -2.104514        -1.438444
 C        -3.578644        -2.265015        -2.900042
 H         1.389244         0.720407        -1.074155
 H         1.905137         0.494682         0.519010
 H         2.047085        -0.855180        -0.704725
 H        -2.854293        -1.268639         1.160214
 H        -2.296007         1.405939         1.269070
 H        -3.895618        -0.116501        -1.352945
 H        -2.537379        -2.788162        -1.095757
 H        -3.731773        -3.267725        -3.235764
 H        -4.435020        -1.656312        -3.122396
 H        -2.681364        -1.881117        -3.305256
