19
Iteration:  1031
 C         1.354437        -0.129581        -0.420106
 C        -0.083712         0.068913        -0.019351
 C        -1.251770        -0.003006         0.192333
 C        -2.710477        -0.091741         0.337887
 O        -3.189542         1.305377         0.421726
 C        -3.128117        -0.920279        -0.804655
 O        -4.431440        -1.561868        -0.817443
 C        -3.305290        -2.408881        -0.802951
 C        -3.055067        -3.328713        -2.124093
 H         1.867483        -0.356850         0.550777
 H         1.549920        -1.073415        -0.879002
 H         1.987283         0.641298        -0.891314
 H        -2.841140        -0.510024         1.378583
 H        -3.631301         1.497737        -0.509466
 H        -2.751512        -0.524510        -1.782189
 H        -3.127895        -2.781784         0.219013
 H        -3.725981        -4.286818        -2.096066
 H        -3.336906        -2.788999        -3.081150
 H        -2.007807        -3.814896        -2.168948
