19
Iteration:   560charge 0 multiplicity 1
 C         1.441784        -0.198357        -0.261974
 C         0.045615         0.041602         0.188830
 C        -1.200758         0.083768         0.022740
 C        -2.717658        -0.002113         0.160045
 O        -3.339400         1.238921         0.132769
 C        -3.263026        -0.851634        -0.943826
 O        -4.529782        -1.610567        -0.711021
 C        -3.285734        -2.392287        -0.750478
 C        -2.920955        -3.406139        -1.939962
 H         2.165535         0.485105         0.207454
 H         1.730319        -1.242825        -0.324478
 H         1.369330        -0.006825        -1.320726
 H        -3.070029        -0.360333         1.125114
 H        -2.910833         1.892912         0.783931
 H        -3.124124        -0.451651        -1.995444
 H        -2.934950        -2.758630         0.194578
 H        -3.565617        -4.289702        -1.787072
 H        -3.269898        -2.794226        -2.799751
 H        -1.795525        -3.694344        -1.831884
