19
Iteration:   840charge 0 multiplicity 1
 C         1.611927         0.348011         0.117022
 C         0.171528         0.020625        -0.039482
 C        -1.044471        -0.057495         0.029079
 C        -2.545901        -0.202162         0.185884
 O        -3.371511         1.075509         0.095655
 C        -3.125470        -1.040110        -0.970680
 O        -4.425938        -1.539012        -0.660081
 C        -3.366375        -2.488197        -0.848014
 C        -3.635280        -3.301540        -2.042880
 H         2.245679        -0.267626        -0.530425
 H         2.012563         1.303424        -0.364495
 H         2.099984         0.320662         1.104579
 H        -2.732662        -0.556765         1.213368
 H        -2.631558         1.648401         0.080692
 H        -2.969793        -0.534605        -1.924924
 H        -2.883221        -2.940393         0.071421
 H        -4.439694        -4.179829        -1.772700
 H        -4.057555        -2.662711        -2.870219
 H        -2.791257        -3.944139        -2.445426
