19
Iteration:  1311
 C         1.515049         0.238884        -0.195684
 C         0.120763        -0.068647         0.088315
 C        -1.096500        -0.034074        -0.028847
 C        -2.484286        -0.163700         0.224859
 O        -3.137530         1.079281         0.321161
 C        -3.168068        -0.937437        -0.873710
 O        -4.493531        -1.570727        -0.536063
 C        -3.364182        -2.401374        -0.887381
 C        -3.513117        -3.239892        -2.197960
 H         1.812739         0.292556        -1.200203
 H         1.789171         1.139690         0.279665
 H         2.166309        -0.573003         0.135836
 H        -2.846726        -0.824494         1.071979
 H        -4.052628         0.803663        -0.077149
 H        -3.284752        -0.446623        -1.837388
 H        -2.960498        -2.877275        -0.034266
 H        -4.329260        -4.016757        -2.251950
 H        -3.894167        -2.574398        -3.013264
 H        -2.517980        -3.659313        -2.468740
