19
Iteration:   745charge 0 multiplicity 1
 C         1.498927         0.391510         0.052635
 C         0.113998        -0.149362        -0.068572
 C        -1.105531        -0.166579        -0.009142
 C        -2.522144        -0.165102         0.149797
 O        -3.195808         1.099506         0.176638
 C        -3.182107        -1.050430        -0.939305
 O        -4.538169        -1.424299        -0.680657
 C        -3.400275        -2.432316        -0.830174
 C        -3.407920        -3.377552        -1.988207
 H         1.787117         0.867826        -0.917509
 H         1.427645         1.358035         0.689712
 H         2.255928        -0.252534         0.536577
 H        -2.919136        -0.591307         1.124740
 H        -2.696796         1.736998        -0.448412
 H        -2.888235        -0.602590        -1.953750
 H        -3.121164        -2.837008         0.186042
 H        -4.084838        -4.127111        -1.770981
 H        -3.586818        -2.923586        -2.936014
 H        -2.482575        -3.915784        -2.145967
