19
Iteration:  3046
 C         1.495506         0.012889        -0.293432
 C         0.057414         0.068197        -0.053070
 C        -1.134686        -0.110722        -0.025625
 C        -2.537477        -0.359454         0.373193
 O        -3.049170         0.927343         0.760940
 C        -3.372015        -0.892948        -0.765254
 O        -4.599127        -1.720257        -0.555087
 C        -3.332765        -2.365885        -1.080672
 C        -3.355907        -2.722082        -2.598228
 H         1.914427        -0.847599         0.149613
 H         1.689205         0.025409        -1.351492
 H         2.136458         1.007023        -0.157802
 H        -2.630442        -0.870833         1.395518
 H        -2.635498         1.285016         1.556447
 H        -3.574816        -0.159130        -1.583345
 H        -2.557688        -2.897280        -0.368064
 H        -3.522272        -3.788787        -2.833415
 H        -4.029179        -2.081101        -3.094020
 H        -2.375242        -2.438348        -2.963610
