19
Iteration:   504
 C         1.259481        -0.158249        -0.108532
 C        -0.156350        -0.146714        -0.265147
 C        -1.320690         0.033448         0.084027
 C        -2.723308        -0.036251         0.233371
 O        -3.270309         1.398602         0.162405
 C        -3.165176        -0.941825        -0.902517
 O        -4.318930        -1.644771        -0.626679
 C        -3.151919        -2.395507        -0.788854
 C        -3.033043        -3.290286        -1.936132
 H         1.519270        -0.036945         0.958923
 H         1.752579        -1.165834        -0.287893
 H         1.625934         0.698087        -0.636924
 H        -3.204785        -0.242736         1.177330
 H        -2.607537         1.879196        -0.283628
 H        -2.956112        -0.487278        -1.931298
 H        -2.531338        -2.777788         0.038314
 H        -3.329314        -4.330615        -1.550874
 H        -3.563901        -3.050120        -2.886940
 H        -1.903695        -3.193173        -2.257940
