19
Iteration:   433charge 0 multiplicity 1
 C         1.465072        -0.125538        -0.162209
 C         0.023867         0.031526         0.265898
 C        -1.162959        -0.053616         0.005871
 C        -2.696471        -0.057797         0.048438
 O        -3.303567         1.284572        -0.014939
 C        -3.452893        -0.933588        -0.933358
 O        -4.488161        -1.662046        -0.388314
 C        -3.189739        -2.395166        -0.788889
 C        -3.010287        -3.229005        -2.064259
 H         2.053609        -0.908019         0.345796
 H         1.547466        -0.423902        -1.188632
 H         1.919060         0.899955         0.078449
 H        -2.911615        -0.446118         1.057824
 H        -2.849948         1.552750        -0.788674
 H        -3.622118        -0.476931        -1.882459
 H        -2.656757        -2.863667         0.072890
 H        -3.468558        -4.163443        -2.018208
 H        -3.200881        -2.636248        -2.954901
 H        -1.983651        -3.209271        -2.010313
