19
Iteration:  2754
 C         1.457612         0.331478        -0.279163
 C         0.051293        -0.090923        -0.215706
 C        -1.052277        -0.294679         0.238606
 C        -2.435447        -0.302806         0.369472
 O        -3.171538         0.864816         0.704222
 C        -3.122662        -1.009343        -0.814341
 O        -4.512999        -1.491662        -0.611268
 C        -3.420381        -2.385023        -1.032267
 C        -3.533577        -2.854174        -2.546215
 H         1.689747         1.489626        -0.150648
 H         1.802845         0.138428         0.732336
 H         2.117646        -0.156625        -0.907618
 H        -2.538347        -1.052919         1.201367
 H        -2.768454         1.623514         0.251643
 H        -2.978214        -0.405257        -1.772267
 H        -3.193096        -3.170743        -0.368660
 H        -4.321093        -3.701377        -2.632431
 H        -3.806790        -1.980475        -3.144186
 H        -2.497477        -3.380050        -2.615608
