19
Iteration:   493
 C         1.233083        -0.169193        -0.054127
 C        -0.168440        -0.135825        -0.272571
 C        -1.291001        -0.024487         0.068915
 C        -2.705959         0.125921         0.216328
 O        -3.241406         1.416144         0.157187
 C        -3.114709        -0.940344        -0.833590
 O        -4.388730        -1.711842        -0.607394
 C        -3.109281        -2.405127        -0.757260
 C        -3.026233        -3.295666        -2.018456
 H         1.445979        -0.027180         1.014168
 H         1.811145        -0.961692        -0.642516
 H         1.647539         0.712010        -0.512908
 H        -2.958724        -0.383730         1.155191
 H        -2.837516         1.964489        -0.520923
 H        -3.071809        -0.616397        -1.923569
 H        -2.984581        -2.838904         0.231798
 H        -3.231952        -4.409516        -1.832845
 H        -3.735145        -2.995315        -2.837379
 H        -1.927150        -3.445145        -2.408757
