19
Iteration:  4847
 C         1.378615         0.372358        -0.539326
 C         0.039855        -0.161079        -0.126423
 C        -0.996677        -0.573193         0.447416
 C        -2.483502        -0.724193         0.595725
 O        -3.064011         0.530355         1.200348
 C        -3.209035        -0.856265        -0.768112
 O        -4.487529        -1.237235        -0.830181
 C        -3.430788        -2.203151        -1.303458
 C        -3.468177        -2.468717        -2.794434
 H         1.951865        -0.133554         0.305419
 H         1.757966         0.383052        -1.605236
 H         1.545450         1.399133        -0.244732
 H        -2.836469        -1.475105         1.262254
 H        -2.741094         1.302245         0.697083
 H        -3.043236         0.016375        -1.506421
 H        -3.431206        -3.087472        -0.670506
 H        -4.059798        -3.392008        -2.983144
 H        -4.031199        -1.723793        -3.491364
 H        -2.354980        -2.509828        -3.079283
