19
Iteration:  1348
 C         1.632478         0.282745        -0.187455
 C         0.116817         0.046098        -0.082703
 C        -1.069164        -0.119302         0.051597
 C        -2.521437        -0.196288         0.199360
 O        -3.223014         0.989182         0.491537
 C        -3.168314        -0.925086        -0.954582
 O        -4.540530        -1.480874        -0.671458
 C        -3.444436        -2.411800        -0.853930
 C        -3.542598        -3.360420        -2.143681
 H         1.973495        -0.068761        -1.182991
 H         1.936041         1.373773         0.009226
 H         2.082205        -0.246654         0.636400
 H        -2.537068        -0.758150         1.153130
 H        -2.814008         1.744730        -0.021038
 H        -2.923276        -0.467048        -1.967757
 H        -3.111047        -2.886844         0.124166
 H        -4.156678        -4.225585        -2.112294
 H        -3.826082        -2.663180        -2.899624
 H        -2.563200        -3.607106        -2.486616
