19
Iteration:  4960charge 0 multiplicity 1
 C         1.517672         0.189425        -0.036998
 C         0.071163        -0.058784        -0.096668
 C        -1.139365        -0.095341        -0.028403
 C        -2.372827        -0.502954         0.315734
 O        -3.029316         0.381177         1.269732
 C        -3.244778        -0.780962        -0.873924
 O        -4.381855        -1.567956        -0.585578
 C        -3.412898        -2.189319        -1.390629
 C        -3.782598        -2.464577        -2.878772
 H         2.027787         0.440291         0.866212
 H         1.908000        -0.686989        -0.513725
 H         1.894048         0.832592        -0.891004
 H        -2.329297        -1.409431         0.796911
 H        -2.706271         1.288313         1.172417
 H        -3.286422         0.026838        -1.479739
 H        -2.806895        -2.933461        -0.878866
 H        -4.644035        -3.143441        -2.579312
 H        -4.208821        -1.586830        -3.365972
 H        -3.008139        -2.912246        -3.456347
