19
Iteration:   546
 C         1.471310        -0.176225        -0.292084
 C         0.054220         0.018388         0.176093
 C        -1.219941        -0.031717         0.042723
 C        -2.726831        -0.021794         0.181186
 O        -3.422483         1.314580         0.136098
 C        -3.262092        -0.888083        -0.987788
 O        -4.477398        -1.689435        -0.704501
 C        -3.235851        -2.298875        -0.817549
 C        -2.989030        -3.290082        -1.846302
 H         2.292614         0.185288         0.336749
 H         1.572275        -1.313506        -0.103798
 H         1.722730         0.213485        -1.261121
 H        -2.845681        -0.707660         1.033148
 H        -2.731273         1.898232         0.463948
 H        -3.393796        -0.357589        -1.954571
 H        -2.913807        -2.621123         0.253360
 H        -3.389253        -4.295208        -1.714781
 H        -3.214312        -3.147201        -2.877871
 H        -1.928825        -3.462478        -1.852123
