19
Iteration:  2291charge 0 multiplicity 1
 C         1.545154         0.194047        -0.263331
 C         0.013252        -0.038094        -0.304977
 C        -1.102531        -0.194041         0.155348
 C        -2.517063        -0.275361         0.413069
 O        -3.223497         0.945012         0.465903
 C        -3.198190        -0.943918        -0.740005
 O        -4.500631        -1.639726        -0.600350
 C        -3.367865        -2.329100        -0.957200
 C        -3.387492        -2.890668        -2.339033
 H         1.864302         0.952278        -0.957940
 H         1.802919         0.633004         0.684114
 H         2.251160        -0.605559        -0.470965
 H        -2.650343        -0.967027         1.378962
 H        -2.719494         1.677281         0.908955
 H        -3.260180        -0.385752        -1.727759
 H        -2.913372        -3.094948        -0.278896
 H        -4.094903        -3.745351        -2.365862
 H        -4.044599        -2.220577        -2.944656
 H        -2.585325        -3.291189        -2.923774
