19
Iteration:  1834
 C         1.385724        -0.147827        -0.194815
 C        -0.043856        -0.059509        -0.380048
 C        -1.214174        -0.088665         0.021320
 C        -2.657148        -0.107528         0.347240
 O        -3.198985         1.184323         0.547987
 C        -3.330432        -0.864279        -0.882984
 O        -4.365814        -1.763940        -0.353300
 C        -3.120983        -2.398612        -0.910652
 C        -3.227334        -2.871538        -2.369350
 H         1.867213        -0.506232        -1.169731
 H         1.807528         0.730260         0.170566
 H         1.776523        -0.928358         0.457486
 H        -2.832419        -0.680180         1.220816
 H        -3.456239         1.518490        -0.365519
 H        -3.496105        -0.200860        -1.716126
 H        -2.327050        -2.964562        -0.223151
 H        -3.456481        -3.971126        -2.442036
 H        -4.094278        -2.459184        -2.872202
 H        -2.362214        -2.688282        -3.012414
