19
Iteration:  4267
 C         1.341040         0.278936        -0.503692
 C         0.031711        -0.108082        -0.043357
 C        -1.111854        -0.448629         0.267945
 C        -2.480296        -0.606597         0.650323
 O        -3.104362         0.747990         0.964194
 C        -3.120883        -0.916384        -0.687104
 O        -4.459582        -1.406413        -0.717859
 C        -3.436126        -2.223918        -1.266265
 C        -3.445063        -2.554637        -2.818901
 H         1.923209         0.222641         0.467101
 H         1.727107        -0.383989        -1.243141
 H         1.398183         1.185092        -0.944040
 H        -2.640252        -1.315311         1.460910
 H        -2.485324         1.258147         1.500202
 H        -2.937681        -0.155748        -1.386940
 H        -3.032876        -3.037281        -0.594716
 H        -4.208982        -3.274953        -3.086444
 H        -3.560645        -1.743722        -3.466602
 H        -2.611738        -3.161241        -3.100009
