19
Iteration:  4839charge 0 multiplicity 1
 C         1.332552         0.353323        -0.522510
 C        -0.022491        -0.133359        -0.102033
 C        -1.010548        -0.591651         0.441268
 C        -2.475173        -0.652824         0.609255
 O        -3.009261         0.513533         1.208376
 C        -3.173846        -0.868303        -0.783039
 O        -4.530533        -1.230227        -0.824093
 C        -3.483059        -2.175428        -1.359980
 C        -3.428289        -2.505858        -2.805277
 H         2.140738        -0.187769        -0.006812
 H         1.665629         0.268785        -1.558742
 H         1.423641         1.416568        -0.199731
 H        -2.618665        -1.497693         1.442756
 H        -2.655964         1.268620         0.687682
 H        -2.892315        -0.099237        -1.392372
 H        -3.183132        -2.985472        -0.741747
 H        -3.867828        -3.504810        -2.885636
 H        -3.906823        -1.664219        -3.356833
 H        -2.448328        -2.558296        -3.126933
