19
Iteration:  1761
 C         1.417975        -0.047505        -0.287946
 C        -0.003316         0.010676        -0.060373
 C        -1.183587        -0.111983         0.124731
 C        -2.670705        -0.123520         0.263904
 O        -3.120686         1.203899         0.451045
 C        -3.461028        -0.857633        -0.846694
 O        -4.327865        -1.900273        -0.312744
 C        -3.155922        -2.267889        -1.066355
 C        -3.366970        -3.001843        -2.388904
 H         1.904023         0.342559        -1.198603
 H         2.085380         0.132655         0.631398
 H         1.709087        -1.115432        -0.498666
 H        -2.808838        -0.725283         1.257988
 H        -2.499645         1.816162        -0.015000
 H        -3.683815        -0.162998        -1.732327
 H        -2.484843        -2.741982        -0.372899
 H        -3.803014        -4.002874        -2.413563
 H        -3.918216        -2.361965        -3.137388
 H        -2.352774        -3.125102        -2.861030
