19
Iteration:  4660
 C         1.443575        -0.043333        -0.383912
 C         0.009670        -0.120504        -0.074706
 C        -1.124527        -0.169482         0.291505
 C        -2.479525        -0.409086         0.426799
 O        -3.144278         0.634651         1.206885
 C        -3.326883        -0.771342        -0.788765
 O        -4.345627        -1.736923        -0.524734
 C        -3.234057        -2.130898        -1.388626
 C        -3.525706        -2.363104        -2.878827
 H         1.460532        -0.721710        -1.336995
 H         1.654819         1.022974        -0.725134
 H         2.175739        -0.530904         0.208523
 H        -2.696954        -1.395889         1.086323
 H        -3.028086         1.449995         0.697585
 H        -3.589280         0.104638        -1.511555
 H        -2.395793        -2.604089        -0.830265
 H        -3.864986        -3.372635        -3.146701
 H        -4.389559        -1.902801        -3.337281
 H        -2.740234        -2.221332        -3.703474
