19
Iteration:  3255charge 0 multiplicity 1
 C         1.469922         0.037906        -0.413988
 C        -0.008360        -0.129131        -0.149342
 C        -1.195967        -0.321338         0.145531
 C        -2.592152        -0.254797         0.488309
 O        -3.074229         1.002408         0.846852
 C        -3.394219        -0.805773        -0.765085
 O        -4.538218        -1.803375        -0.521046
 C        -3.299752        -2.236464        -1.166202
 C        -3.229809        -2.657465        -2.645848
 H         1.570594         1.160082        -0.501758
 H         2.157531        -0.443386         0.301866
 H         1.777642        -0.493113        -1.479232
 H        -2.709052        -0.951397         1.274047
 H        -2.476617         1.484102         1.427642
 H        -3.586291        -0.004421        -1.536749
 H        -2.485310        -2.698490        -0.570695
 H        -3.444713        -3.740515        -2.706688
 H        -3.897429        -2.239776        -3.465398
 H        -2.221488        -2.745970        -3.140133
