19
Iteration:  2094charge 0 multiplicity 1
 C         1.503113         0.242644        -0.297867
 C         0.122195         0.081237        -0.098479
 C        -1.042731        -0.130672         0.154154
 C        -2.538573        -0.262964         0.365186
 O        -3.150716         0.976342         0.662260
 C        -3.179000        -0.940254        -0.921530
 O        -4.502443        -1.494242        -0.648708
 C        -3.350759        -2.405379        -1.053127
 C        -3.540963        -3.183802        -2.269787
 H         2.003124         0.327421         0.661376
 H         1.960166        -0.612569        -0.867918
 H         1.858808         1.137458        -0.886596
 H        -2.787606        -1.057059         0.992324
 H        -3.493828         1.345456        -0.144664
 H        -3.165130        -0.410802        -1.898388
 H        -2.988835        -2.832190        -0.057608
 H        -4.451260        -3.819520        -2.203943
 H        -3.561485        -2.613405        -3.185567
 H        -2.707508        -3.864820        -2.439399
