19
Iteration:  2703charge 0 multiplicity 1
 C         1.505847         0.298399        -0.285589
 C         0.112457         0.023176         0.123639
 C        -1.051865        -0.351983         0.166425
 C        -2.528941        -0.326118         0.349421
 O        -3.030662         1.030064         0.738138
 C        -3.350044        -0.922620        -0.849356
 O        -4.525438        -1.614113        -0.566434
 C        -3.374710        -2.376205        -1.211037
 C        -3.512698        -3.023889        -2.573170
 H         1.853231         1.299516         0.003718
 H         2.393333        -0.357459         0.007382
 H         1.461434         0.228967        -1.439113
 H        -2.583432        -0.911250         1.267790
 H        -2.699954         1.700004         0.115158
 H        -3.384797        -0.177299        -1.669363
 H        -3.050936        -3.074832        -0.315732
 H        -4.169811        -3.837545        -2.558634
 H        -4.100436        -2.191081        -3.062119
 H        -2.528534        -3.075188        -3.004543
