19
Iteration:  3714
 C         1.479300         0.159897        -0.442803
 C        -0.019891        -0.135599        -0.135985
 C        -1.212842        -0.305045         0.123969
 C        -2.581116        -0.397871         0.531233
 O        -3.031730         0.805703         0.999115
 C        -3.354619        -0.741714        -0.773306
 O        -4.478661        -1.623851        -0.716045
 C        -3.265452        -2.231080        -1.195318
 C        -3.366793        -2.710593        -2.598570
 H         1.913072         0.576328         0.501361
 H         2.021918        -0.746465        -0.715373
 H         1.723794         0.888907        -1.160349
 H        -2.753919        -1.218281         1.265518
 H        -2.395543         1.527999         0.870830
 H        -3.388055         0.025872        -1.499469
 H        -3.077894        -2.970343        -0.479819
 H        -3.572368        -3.744034        -2.469236
 H        -4.147764        -2.287026        -3.104931
 H        -2.411410        -2.513371        -3.116095
