19
Iteration:   284
 C         1.460507         0.156244         0.015740
 C         0.023985         0.053824        -0.216420
 C        -1.126528        -0.029990         0.092832
 C        -2.614209        -0.051591         0.130093
 O        -3.168114         1.227349        -0.019859
 C        -3.174149        -1.028475        -0.850454
 O        -4.498728        -1.495034        -0.708327
 C        -3.369786        -2.543792        -0.694653
 C        -3.263241        -3.470079        -1.941420
 H         2.137264        -0.012588        -0.791957
 H         1.511807         1.221619         0.225923
 H         1.665039        -0.473604         0.755184
 H        -2.980095        -0.461179         1.087963
 H        -3.091493         1.779341         0.768402
 H        -2.959675        -0.717096        -1.868277
 H        -3.218334        -2.892086         0.323533
 H        -3.843516        -4.363962        -1.789970
 H        -3.671503        -2.892531        -2.774852
 H        -2.228501        -3.810116        -2.023332
