19
Iteration:  2104
 C         1.560808         0.259465        -0.291735
 C         0.110003         0.089809        -0.031339
 C        -1.073779        -0.079812         0.142912
 C        -2.470871        -0.306382         0.271678
 O        -3.147275         0.940171         0.623560
 C        -3.231776        -0.937667        -0.901604
 O        -4.474373        -1.481072        -0.604201
 C        -3.428641        -2.390003        -0.999033
 C        -3.522631        -3.180331        -2.334643
 H         2.094697         0.334831         0.613087
 H         1.897655        -0.758651        -0.695001
 H         1.770099         1.111210        -1.002255
 H        -2.645762        -0.859901         1.176311
 H        -3.571867         1.248711        -0.199706
 H        -3.287543        -0.216436        -1.714101
 H        -3.065371        -3.246461        -0.287752
 H        -4.373440        -3.891711        -2.226655
 H        -3.671587        -2.633581        -3.250067
 H        -2.621137        -3.769626        -2.270508
