19
Iteration:  2553charge 0 multiplicity 1
 C         1.392569        -0.021622        -0.406525
 C         0.012670        -0.022677        -0.062324
 C        -1.196986        -0.038616         0.215562
 C        -2.556031        -0.267528         0.379603
 O        -3.197493         1.002815         0.674422
 C        -3.270055        -0.840921        -0.935321
 O        -4.390085        -1.719257        -0.575736
 C        -3.209673        -2.262792        -1.089864
 C        -3.379604        -2.935177        -2.410140
 H         1.964600        -0.663968         0.300690
 H         1.433016        -0.460688        -1.435746
 H         2.015032         0.937057        -0.332090
 H        -2.735784        -0.991407         1.153897
 H        -2.841039         1.606722         1.341252
 H        -3.321990        -0.163433        -1.770596
 H        -2.580351        -2.811988        -0.394107
 H        -3.970659        -3.875292        -2.261393
 H        -3.810666        -2.081813        -3.003562
 H        -2.377147        -3.244384        -2.745126
