19
Iteration:  2913charge 0 multiplicity 1
 C         1.532226         0.220650        -0.461436
 C         0.103697         0.099225         0.005808
 C        -1.082902        -0.131304         0.209476
 C        -2.503971        -0.569442         0.447149
 O        -3.137801         0.844599         0.864941
 C        -3.181971        -0.979375        -0.787609
 O        -4.598294        -1.418073        -0.749564
 C        -3.504914        -2.306776        -1.115563
 C        -3.374271        -2.929874        -2.484740
 H         1.734832        -0.251785        -1.367950
 H         1.669323         1.285816        -0.791971
 H         2.237434        -0.288180         0.372093
 H        -2.756864        -1.239830         1.232387
 H        -2.855612         1.359889         0.087686
 H        -2.820100        -0.364128        -1.582857
 H        -3.357023        -3.073201        -0.221675
 H        -4.142794        -3.591553        -2.810609
 H        -3.479122        -2.084938        -3.141402
 H        -2.421280        -3.297346        -2.642308
