19
Iteration:  3753charge 0 multiplicity 1
 C         1.341729         0.091626        -0.618716
 C        -0.005663        -0.037222        -0.014440
 C        -1.121647        -0.388877         0.329326
 C        -2.667408        -0.315239         0.509222
 O        -3.046902         0.888038         1.034335
 C        -3.274309        -0.825185        -0.806503
 O        -4.451327        -1.626823        -0.650538
 C        -3.385961        -2.243915        -1.216439
 C        -3.230436        -2.716401        -2.672503
 H         1.964345         0.730465        -0.033973
 H         1.748776        -0.915822        -0.390590
 H         1.385841         0.426107        -1.748405
 H        -3.021798        -1.074318         1.246116
 H        -2.229632         1.423190         1.006779
 H        -3.202968        -0.126901        -1.683733
 H        -2.879425        -3.032786        -0.570971
 H        -3.648563        -3.707648        -3.000993
 H        -3.905442        -1.916600        -3.225848
 H        -2.226810        -2.653527        -3.113504
