19
Iteration:  4764charge 0 multiplicity 1
 C         1.394090         0.194269        -0.534857
 C         0.005439        -0.166758        -0.181604
 C        -1.090596        -0.406901         0.282302
 C        -2.549378        -0.613582         0.623665
 O        -3.089753         0.505030         1.293747
 C        -3.242452        -0.756517        -0.760141
 O        -4.549866        -1.343769        -0.791612
 C        -3.343761        -2.085432        -1.320324
 C        -3.323368        -2.538785        -2.808699
 H         2.090518        -0.522606        -0.793732
 H         1.245291         0.631872        -1.487269
 H         1.764661         0.996304         0.165918
 H        -2.795650        -1.505351         1.261835
 H        -2.413329         1.189813         1.378349
 H        -3.154281         0.075078        -1.362548
 H        -3.109609        -2.890348        -0.602753
 H        -4.045633        -3.293928        -3.134313
 H        -3.243508        -1.655643        -3.466352
 H        -2.417580        -3.019340        -2.855007
