19
Iteration:  1821charge 0 multiplicity 1
 C         1.397983        -0.122576        -0.229993
 C        -0.083756        -0.174203        -0.275191
 C        -1.237850        -0.060927        -0.005844
 C        -2.652393        -0.126562         0.233295
 O        -3.154486         1.186673         0.534727
 C        -3.311420        -0.890433        -0.787185
 O        -4.311480        -1.804032        -0.329138
 C        -3.149407        -2.252863        -1.011374
 C        -3.264570        -2.892133        -2.350951
 H         1.948353        -0.122374        -1.210832
 H         1.623666         0.822089         0.346452
 H         1.606297        -0.963528         0.437015
 H        -2.852403        -0.720331         1.141828
 H        -3.585502         1.561004        -0.223152
 H        -3.523796        -0.462934        -1.737450
 H        -2.563554        -2.821874        -0.295963
 H        -3.361649        -4.023970        -2.192570
 H        -4.047604        -2.453500        -2.947806
 H        -2.275459        -2.583139        -2.752320
