19
Iteration:   569charge 0 multiplicity 1
 C         1.355165        -0.190880        -0.262707
 C        -0.013672         0.021516         0.117966
 C        -1.192048         0.129621         0.088559
 C        -2.644740        -0.000950         0.183122
 O        -3.310050         1.265115         0.100284
 C        -3.291260        -0.965868        -0.906922
 O        -4.519840        -1.554288        -0.731984
 C        -3.256070        -2.428829        -0.771434
 C        -2.954229        -3.357505        -1.914923
 H         2.051965         0.564200         0.139643
 H         1.824450        -1.204239        -0.026387
 H         1.434155         0.094993        -1.282518
 H        -2.670021        -0.648656         1.062482
 H        -2.997848         1.773224         0.927125
 H        -2.989990        -0.544990        -1.916422
 H        -2.941321        -2.740717         0.269254
 H        -3.541846        -4.276758        -1.954118
 H        -3.130827        -2.996009        -2.920908
 H        -1.922824        -3.743571        -1.892556
