19
Iteration:  2976
 C         1.293525         0.219009        -0.384441
 C         0.010583        -0.205329        -0.079073
 C        -1.147557        -0.251561         0.250225
 C        -2.534007        -0.356381         0.455613
 O        -3.099281         0.937813         0.784746
 C        -3.128626        -0.843762        -0.824094
 O        -4.446052        -1.581427        -0.697419
 C        -3.208622        -2.315817        -1.138612
 C        -3.522837        -2.853535        -2.482920
 H         1.836373        -0.586399        -0.782614
 H         1.276600         1.067376        -1.114009
 H         1.816349         0.760516         0.410785
 H        -2.739465        -1.225868         1.230608
 H        -2.305352         1.508459         0.841896
 H        -3.114282        -0.278480        -1.751565
 H        -2.592725        -2.864043        -0.394328
 H        -4.439036        -3.515381        -2.557302
 H        -3.664663        -1.861785        -3.110786
 H        -2.606736        -3.311389        -2.998768
