19
Iteration:  2942charge 0 multiplicity 1
 C         1.448398         0.248163        -0.444942
 C         0.070570         0.049546        -0.012145
 C        -1.035325        -0.325470         0.311719
 C        -2.477755        -0.382068         0.488572
 O        -3.147795         0.941316         0.838977
 C        -3.180120        -0.944510        -0.822310
 O        -4.544574        -1.527194        -0.695311
 C        -3.446468        -2.308078        -1.163156
 C        -3.456877        -2.959633        -2.560509
 H         1.723891        -0.572402        -1.183835
 H         1.511407         1.146101        -1.073167
 H         2.181726         0.155145         0.327294
 H        -2.832273        -1.113961         1.330992
 H        -2.578652         1.694644         0.563132
 H        -2.947726        -0.295593        -1.730467
 H        -3.075726        -3.042771        -0.489697
 H        -4.267470        -3.612413        -2.965096
 H        -3.429579        -1.988839        -3.226859
 H        -2.390711        -3.418513        -2.678991
