19
Iteration:   322charge 0 multiplicity 1
 C         1.522581         0.102973        -0.079700
 C         0.140775         0.014099         0.216667
 C        -1.080123        -0.058406        -0.060654
 C        -2.590111        -0.075895         0.043132
 O        -3.289769         1.148496        -0.048306
 C        -3.388743        -0.955781        -0.971653
 O        -4.596231        -1.611364        -0.601910
 C        -3.318004        -2.405632        -0.739203
 C        -3.178792        -3.323902        -1.868555
 H         1.858403        -0.601760        -0.900543
 H         1.791467         1.171919        -0.218381
 H         2.278069         0.183058         0.881320
 H        -2.601175        -0.540776         1.069776
 H        -2.708589         1.832540         0.412677
 H        -3.449515        -0.546835        -2.028763
 H        -2.912680        -2.792462         0.228301
 H        -3.825400        -4.247565        -1.816565
 H        -3.518537        -2.915177        -2.834801
 H        -2.149968        -3.584969        -2.169469
