19
Iteration:  4285charge 0 multiplicity 1
 C         1.327670         0.221810        -0.484218
 C        -0.014692        -0.090168        -0.173303
 C        -1.049265        -0.424668         0.412843
 C        -2.533841        -0.560930         0.622928
 O        -3.067772         0.647780         0.969629
 C        -3.165335        -0.854015        -0.726832
 O        -4.518522        -1.435771        -0.815889
 C        -3.341392        -2.200902        -1.276279
 C        -3.411567        -2.517614        -2.657272
 H         2.044269         0.450884         0.299004
 H         1.863865        -0.582217        -1.058414
 H         1.338395         1.195850        -1.122783
 H        -2.741237        -1.455051         1.332058
 H        -2.343854         1.158689         1.344474
 H        -3.026962        -0.032479        -1.434261
 H        -3.165887        -3.154064        -0.752135
 H        -4.225371        -3.275976        -2.751333
 H        -3.826762        -1.613587        -3.192067
 H        -2.384526        -2.862783        -3.005455
