19
Iteration:  3250charge 0 multiplicity 1
 C         1.435206         0.049462        -0.416898
 C        -0.003147        -0.195027        -0.146526
 C        -1.167277        -0.302894         0.112788
 C        -2.633153        -0.263512         0.463133
 O        -3.088692         0.993947         0.817716
 C        -3.384576        -0.819341        -0.731350
 O        -4.457934        -1.771529        -0.508563
 C        -3.321251        -2.247278        -1.188619
 C        -3.236221        -2.619347        -2.603891
 H         1.637026         1.221291        -0.469342
 H         2.068384        -0.526784         0.272590
 H         1.650304        -0.336394        -1.302644
 H        -2.795478        -1.071890         1.349903
 H        -2.533930         1.577352         1.374749
 H        -3.574601        -0.096656        -1.489169
 H        -2.572224        -2.912633        -0.669486
 H        -3.415329        -3.770415        -2.737180
 H        -3.870097        -2.151060        -3.340051
 H        -2.238056        -2.608967        -3.065668
