19
Iteration:  2990charge 0 multiplicity 1
 C         1.383138         0.222614        -0.406491
 C         0.031681        -0.240504        -0.107816
 C        -1.143549        -0.313005         0.243127
 C        -2.550010        -0.406794         0.426543
 O        -3.156983         0.974418         0.779633
 C        -3.208983        -0.831615        -0.874283
 O        -4.402851        -1.615735        -0.629252
 C        -3.247463        -2.241190        -1.130452
 C        -3.444364        -2.799853        -2.523083
 H         2.115014        -0.526728        -0.522920
 H         1.309434         0.894165        -1.306405
 H         1.732008         0.809361         0.615951
 H        -2.845068        -1.007295         1.341626
 H        -2.436519         1.597721         0.994665
 H        -3.306548         0.037933        -1.529149
 H        -2.774729        -3.033035        -0.375490
 H        -4.192713        -3.612092        -2.302042
 H        -3.952562        -2.106150        -3.188105
 H        -2.642095        -3.361957        -2.939467
