19
Iteration:  3996
 C         1.420180         0.220944        -0.354945
 C         0.128637        -0.112888         0.096675
 C        -1.087555        -0.387949         0.096453
 C        -2.516314        -0.381423         0.515715
 O        -3.097021         0.857061         0.802251
 C        -3.313203        -0.928707        -0.691259
 O        -4.469098        -1.718749        -0.594006
 C        -3.319171        -2.252657        -1.280787
 C        -3.507244        -2.471495        -2.751890
 H         1.522535         0.040680        -1.405083
 H         1.924349         1.202024        -0.124529
 H         2.027065        -0.666914         0.216102
 H        -2.599075        -1.031572         1.358502
 H        -2.357862         1.314525         1.243147
 H        -3.505595        -0.101250        -1.291276
 H        -2.859692        -3.077989        -0.782163
 H        -4.286756        -3.317188        -2.639419
 H        -3.942853        -1.741544        -3.423977
 H        -2.635946        -2.960015        -3.309928
