19
Iteration:   956
 C         1.442308         0.106964        -0.192206
 C         0.014260        -0.123129        -0.073043
 C        -1.185630        -0.133897         0.046481
 C        -2.651865        -0.112076         0.291212
 O        -3.292711         1.114628         0.307377
 C        -3.150146        -0.931900        -0.953997
 O        -4.454738        -1.445631        -0.718495
 C        -3.337528        -2.367218        -0.828784
 C        -3.179070        -3.306179        -2.009807
 H         2.253365        -0.495290         0.340710
 H         1.810547         0.136446        -1.196976
 H         1.489419         1.145249         0.235497
 H        -2.992975        -0.606777         1.171408
 H        -2.660921         1.722224        -0.017488
 H        -2.986067        -0.563797        -1.980696
 H        -3.205094        -2.776650         0.186625
 H        -3.658409        -4.208308        -1.837327
 H        -3.465045        -2.771163        -2.905759
 H        -2.171999        -3.752237        -2.067419
