19
Iteration:  1650charge 0 multiplicity 1
 C         1.475154         0.105463        -0.367777
 C         0.093893         0.007198        -0.054413
 C        -1.142369        -0.216825         0.033400
 C        -2.610748        -0.204943         0.241610
 O        -3.161886         1.075287         0.505237
 C        -3.316278        -0.896730        -0.872620
 O        -4.507350        -1.573199        -0.592973
 C        -3.302224        -2.376865        -0.908361
 C        -3.298583        -3.105275        -2.237053
 H         1.847479         1.007226         0.186885
 H         1.915924        -0.752856         0.157993
 H         1.598403         0.135378        -1.483107
 H        -2.641155        -0.745924         1.198288
 H        -2.850346         1.445496         1.367999
 H        -3.359065        -0.240600        -1.739169
 H        -2.857233        -2.895642        -0.039913
 H        -3.941134        -3.987792        -2.170992
 H        -3.673719        -2.394127        -2.944653
 H        -2.230506        -3.230505        -2.434427
