19
Iteration:  1024
 C         1.319560        -0.141963        -0.374349
 C        -0.031499         0.097239        -0.027353
 C        -1.238980        -0.031564         0.192736
 C        -2.681442        -0.015028         0.338619
 O        -3.141268         1.301067         0.415419
 C        -3.153796        -0.966278        -0.842682
 O        -4.456049        -1.540045        -0.812165
 C        -3.343450        -2.437910        -0.842240
 C        -3.037926        -3.333010        -2.108510
 H         1.941618        -0.339742         0.585847
 H         1.379066        -1.009383        -1.071792
 H         1.595309         0.892175        -0.760776
 H        -2.726610        -0.588813         1.273486
 H        -3.864063         1.254490        -0.293075
 H        -2.852280        -0.593289        -1.810061
 H        -3.043989        -2.973047         0.082238
 H        -3.650223        -4.196773        -1.880056
 H        -3.289626        -2.727461        -2.963362
 H        -2.031184        -3.812998        -2.133664
