19
Iteration:  1207charge 0 multiplicity 1
 C         1.566221         0.063068        -0.244385
 C         0.059138        -0.181558         0.011389
 C        -1.192992        -0.107146         0.050682
 C        -2.650152        -0.078826         0.221252
 O        -3.171041         1.251357         0.272088
 C        -3.335855        -0.891400        -0.928507
 O        -4.507655        -1.691147        -0.506903
 C        -3.291900        -2.357132        -0.877193
 C        -3.188690        -3.143368        -2.152133
 H         1.840398         1.042347        -0.702907
 H         2.111379        -0.071764         0.657597
 H         2.048090        -0.706962        -0.824847
 H        -2.898081        -0.702063         1.086664
 H        -4.024005         1.101506         0.629999
 H        -3.578247        -0.364674        -1.852876
 H        -2.661580        -2.779778        -0.031656
 H        -3.710830        -4.098323        -1.972428
 H        -3.736501        -2.535658        -2.871722
 H        -2.229328        -3.366645        -2.619453
