19
Iteration:  4783
 C         1.309274         0.312406        -0.618632
 C         0.042618        -0.187317        -0.018650
 C        -1.065161        -0.502196         0.353311
 C        -2.500606        -0.596454         0.529814
 O        -3.007330         0.548121         1.344538
 C        -3.212855        -0.746337        -0.799895
 O        -4.592972        -1.400698        -0.940863
 C        -3.464519        -2.149121        -1.250827
 C        -3.292091        -2.465384        -2.745305
 H         1.986219        -0.589061        -0.438457
 H         1.375353         0.576271        -1.695719
 H         1.777810         1.025400         0.046663
 H        -2.637354        -1.607233         1.173946
 H        -2.287863         1.190330         1.275578
 H        -3.067260         0.087794        -1.453610
 H        -3.326924        -2.936356        -0.517796
 H        -4.091034        -3.224439        -2.936502
 H        -3.605877        -1.724593        -3.549861
 H        -2.429298        -3.040921        -3.018363
