19
Iteration:   357
 C         1.410876         0.002143        -0.059370
 C        -0.059017         0.092753        -0.004602
 C        -1.239305        -0.046373         0.102267
 C        -2.644515         0.006021         0.181051
 O        -3.185244         1.298068        -0.012989
 C        -3.231296        -0.948765        -0.983230
 O        -4.357001        -1.676172        -0.550705
 C        -3.253330        -2.449825        -0.846720
 C        -3.263705        -3.422238        -1.979155
 H         2.020122        -0.857527        -0.337866
 H         1.655575         0.790556        -0.774610
 H         1.682667         0.205688         1.059621
 H        -3.027464        -0.328445         1.170603
 H        -2.422349         1.960030         0.140332
 H        -3.354246        -0.553284        -1.964054
 H        -2.832731        -2.843597         0.149236
 H        -3.747188        -4.374122        -1.635368
 H        -3.816664        -2.964882        -2.820238
 H        -2.230226        -3.662395        -2.190880
