19
Iteration:  2014
 C         1.509715         0.181500        -0.539030
 C         0.099604         0.055650        -0.045645
 C        -1.051486        -0.268902         0.197030
 C        -2.531009        -0.328970         0.421730
 O        -3.193822         0.978650         0.558850
 C        -3.213840        -0.931466        -0.828171
 O        -4.688964        -1.368488        -0.862816
 C        -3.508507        -2.328162        -0.845755
 C        -3.145619        -3.148289        -2.200638
 H         2.148981        -0.608396        -0.091293
 H         1.445728        -0.020452        -1.674915
 H         1.794327         1.202416        -0.262054
 H        -2.777225        -0.991710         1.236268
 H        -2.941760         1.344949         1.403132
 H        -3.118879        -0.459070        -1.818706
 H        -3.315598        -2.906219         0.199314
 H        -3.704198        -4.060351        -2.109464
 H        -3.363587        -2.485300        -3.095380
 H        -2.067746        -3.429534        -2.125278
