19
Iteration:  2072charge 0 multiplicity 1
 C         1.457967         0.263719        -0.323824
 C         0.030637        -0.034022        -0.208896
 C        -1.129855        -0.203583         0.137336
 C        -2.570435        -0.238505         0.359968
 O        -3.171898         1.018127         0.754376
 C        -3.126791        -0.899062        -0.885929
 O        -4.395542        -1.511132        -0.849805
 C        -3.283173        -2.414686        -0.910993
 C        -3.530060        -3.141578        -2.203479
 H         1.959237         0.036549         0.591776
 H         1.951400        -0.416969        -1.077319
 H         1.790179         1.278078        -0.661101
 H        -2.861819        -0.996636         1.007115
 H        -3.005078         1.688760         0.033735
 H        -3.101345        -0.238919        -1.760035
 H        -3.039954        -3.033591         0.032151
 H        -4.479179        -3.722299        -2.018691
 H        -3.651738        -2.676336        -3.140623
 H        -2.766490        -3.897297        -2.327898
