19
Iteration:  4161charge 0 multiplicity 1
 C         1.536346         0.215118        -0.153638
 C         0.128885         0.005403        -0.162279
 C        -1.057888        -0.093179         0.116534
 C        -2.432675        -0.544357         0.339536
 O        -3.067405         0.591962         1.060045
 C        -3.293815        -0.859760        -0.922351
 O        -4.556522        -1.489942        -0.658027
 C        -3.329692        -2.222636        -1.302074
 C        -3.692423        -2.704308        -2.630985
 H         2.044357        -0.694796         0.177217
 H         2.182491         0.484924        -1.034785
 H         1.730997         0.947326         0.729360
 H        -2.411929        -1.497558         1.027465
 H        -2.308042         1.026288         1.471196
 H        -3.288534        -0.162568        -1.807630
 H        -3.018043        -3.033664        -0.677314
 H        -4.235177        -3.704291        -2.662423
 H        -4.310586        -1.870620        -3.048968
 H        -2.818179        -2.574414        -3.294914
