19
Iteration:  4332charge 0 multiplicity 1
 C         1.346565         0.111288        -0.565744
 C         0.052881        -0.182795         0.058044
 C        -1.156148        -0.244429         0.125222
 C        -2.504192        -0.520454         0.565583
 O        -3.103982         0.661255         1.183109
 C        -3.279778        -0.752729        -0.775833
 O        -4.526939        -1.467935        -0.747048
 C        -3.372934        -2.151239        -1.255793
 C        -3.304630        -2.627345        -2.793390
 H         1.993508         0.800997         0.069009
 H         2.015756        -0.710244        -0.720715
 H         1.268309         0.632876        -1.501969
 H        -2.518386        -1.408880         1.317840
 H        -2.371133         1.260254         1.453173
 H        -3.244152         0.113638        -1.380929
 H        -2.853714        -2.945719        -0.565290
 H        -3.647924        -3.661311        -2.907692
 H        -3.847497        -1.926989        -3.363864
 H        -2.199181        -2.729177        -2.934738
