19
Iteration:  3936
 C         1.497713         0.002393        -0.404813
 C         0.057517        -0.077074        -0.226264
 C        -1.129550        -0.293031         0.092797
 C        -2.615382        -0.387394         0.581429
 O        -3.231886         0.755326         1.042415
 C        -3.301702        -0.757637        -0.757214
 O        -4.472799        -1.582902        -0.629187
 C        -3.288107        -2.179216        -1.193711
 C        -3.293464        -2.658480        -2.744304
 H         1.740136         0.541357        -1.521361
 H         2.008196         0.654346         0.345347
 H         1.924724        -0.985679        -0.461885
 H        -2.830802        -1.152040         1.465898
 H        -2.652290         1.520019         1.228239
 H        -3.482042         0.109661        -1.505607
 H        -2.677854        -2.777445        -0.420529
 H        -3.374522        -3.723126        -2.620748
 H        -4.195020        -2.182929        -3.207994
 H        -2.424992        -2.452765        -3.352920
