19
Iteration:   222charge 0 multiplicity 1
 C         1.541220         0.240889        -0.203494
 C         0.131189         0.048316         0.231852
 C        -1.074505        -0.021699         0.143406
 C        -2.565223        -0.135277         0.121782
 O        -3.334715         1.183334         0.021173
 C        -3.122683        -1.037485        -1.037104
 O        -4.495993        -1.482818        -0.840477
 C        -3.458394        -2.401937        -0.763780
 C        -3.375559        -3.536288        -1.749471
 H         1.661177         0.969583        -1.065553
 H         2.049502         0.732255         0.669186
 H         2.228474        -0.727279        -0.237796
 H        -2.988133        -0.594611         1.043243
 H        -2.605655         1.719327         0.348644
 H        -3.055579        -0.652644        -2.065490
 H        -3.189078        -2.779074         0.168032
 H        -4.192021        -4.273799        -1.651928
 H        -3.250192        -3.289595        -2.808931
 H        -2.398280        -4.060224        -1.512707
