19
Iteration:  3924
 C         1.504788         0.009038        -0.462875
 C        -0.005284        -0.182262        -0.181124
 C        -1.225998        -0.171436         0.088127
 C        -2.565085        -0.410303         0.505426
 O        -3.249286         0.731624         1.066781
 C        -3.302137        -0.753966        -0.694497
 O        -4.454963        -1.585649        -0.678891
 C        -3.240626        -2.082839        -1.268893
 C        -3.278575        -2.660267        -2.584678
 H         1.796415         0.598350        -1.499144
 H         2.036306         0.406377         0.448575
 H         1.888899        -0.996714        -0.540806
 H        -2.599186        -1.386951         1.183401
 H        -2.583409         1.432965         1.076897
 H        -3.269013         0.135061        -1.426264
 H        -2.809835        -2.930483        -0.612459
 H        -3.379635        -3.751252        -2.636903
 H        -4.171356        -2.348473        -3.140042
 H        -2.404605        -2.360216        -3.140923
