19
Iteration:  3647charge 0 multiplicity 1
 C         1.528940         0.118010        -0.264909
 C         0.116323         0.053046        -0.018508
 C        -1.092469        -0.084649        -0.050368
 C        -2.522584        -0.372525         0.389392
 O        -3.080426         0.714624         0.965249
 C        -3.234099        -0.904314        -0.796458
 O        -4.514074        -1.627112        -0.590486
 C        -3.348094        -2.297669        -1.145534
 C        -3.582144        -2.690738        -2.658910
 H         2.004588        -0.207703         0.644314
 H         1.836709        -0.521929        -1.105675
 H         1.944677         1.129405        -0.439520
 H        -2.404788        -1.159512         1.189483
 H        -3.018234         1.418173         0.285331
 H        -3.476832        -0.232923        -1.578345
 H        -2.889684        -3.050235        -0.542364
 H        -4.285396        -3.487339        -2.593516
 H        -3.983482        -1.977538        -3.356031
 H        -2.712329        -3.055946        -3.217133
