19
Iteration:  1617
 C         1.429540         0.119518        -0.294822
 C        -0.005134         0.044140        -0.327756
 C        -1.129132        -0.080133         0.093709
 C        -2.551237        -0.179121         0.376976
 O        -3.103375         1.083146         0.692158
 C        -3.262662        -0.873884        -0.879237
 O        -4.528617        -1.546080        -0.774842
 C        -3.319126        -2.393621        -0.987696
 C        -3.355851        -3.298638        -2.163126
 H         1.643975         0.774043         0.609771
 H         1.751623        -0.911552        -0.098979
 H         2.069241         0.556706        -1.115825
 H        -2.672144        -0.787096         1.275677
 H        -2.247688         1.489880         0.774698
 H        -3.193940        -0.126143        -1.640967
 H        -3.046705        -2.914207        -0.108599
 H        -3.906291        -4.245877        -2.100808
 H        -3.727397        -2.696675        -2.966306
 H        -2.351616        -3.666286        -2.410520
