19
Iteration:  1646charge 0 multiplicity 1
 C         1.493222         0.092077        -0.360179
 C         0.041541         0.024452        -0.083613
 C        -1.121800        -0.200044         0.035137
 C        -2.597210        -0.210637         0.269520
 O        -3.155928         1.086858         0.519490
 C        -3.319452        -0.896989        -0.880909
 O        -4.514991        -1.593441        -0.625509
 C        -3.289287        -2.355257        -0.938971
 C        -3.313251        -3.094373        -2.193346
 H         1.812830         1.010930         0.169149
 H         1.896838        -0.773057         0.118256
 H         1.747104         0.243149        -1.416376
 H        -2.738343        -0.803145         1.250126
 H        -2.716554         1.353912         1.346489
 H        -3.299598        -0.219523        -1.741310
 H        -2.950209        -3.054318        -0.048248
 H        -3.842580        -4.048100        -2.120037
 H        -3.731059        -2.386747        -2.914526
 H        -2.282520        -3.407298        -2.407561
