19
Iteration:    88
 C         1.547303         0.273844        -0.105699
 C         0.148324         0.031337         0.168897
 C        -1.030413        -0.061339         0.122931
 C        -2.456806        -0.246848         0.090177
 O        -3.369883         1.145520         0.023619
 C        -3.147650        -1.020215        -1.071046
 O        -4.592861        -1.480030        -0.883968
 C        -3.455097        -2.383868        -0.682395
 C        -3.320709        -3.449487        -1.654010
 H         2.033497         1.066716         0.508825
 H         2.025385        -0.743293        -0.267365
 H         1.682983         0.761240        -1.132664
 H        -2.828510        -0.714867         0.966883
 H        -2.842265         1.730648        -0.482484
 H        -3.036179        -0.816477        -2.114612
 H        -3.339862        -2.531044         0.300305
 H        -4.161177        -4.125389        -1.629058
 H        -3.290321        -2.907385        -2.596679
 H        -2.376835        -3.964158        -1.512373
