19
Iteration:  3252charge 0 multiplicity 1
 C         1.453875         0.038694        -0.414188
 C        -0.010062        -0.167317        -0.147590
 C        -1.178006        -0.312078         0.126177
 C        -2.617878        -0.253151         0.472466
 O        -3.080508         0.995051         0.830202
 C        -3.387160        -0.812230        -0.746323
 O        -4.493041        -1.785471        -0.513183
 C        -3.317983        -2.245529        -1.180194
 C        -3.232530        -2.627777        -2.614962
 H         1.604641         1.283905        -0.492524
 H         2.100314        -0.500838         0.260793
 H         1.705391        -0.409407        -1.360366
 H        -2.757146        -1.045726         1.343638
 H        -2.519702         1.557674         1.401389
 H        -3.571772        -0.058149        -1.508020
 H        -2.496998        -2.828489        -0.629533
 H        -3.420575        -3.809557        -2.738011
 H        -3.888147        -2.191604        -3.428230
 H        -2.218985        -2.691231        -3.130751
