19
Iteration:   261
 C         1.375030         0.170708        -0.011606
 C        -0.017179         0.138856        -0.249672
 C        -1.191650        -0.045107         0.143277
 C        -2.610577        -0.188793         0.229759
 O        -3.125758         1.248381        -0.020683
 C        -3.037776        -1.050061        -0.926805
 O        -4.418037        -1.523605        -0.818662
 C        -3.353299        -2.509418        -0.726173
 C        -3.372300        -3.426791        -1.820394
 H         2.002927         0.248542        -0.844216
 H         1.527312         1.071425         0.581445
 H         1.544796        -0.700936         0.400517
 H        -2.955987        -0.610517         1.178642
 H        -3.001611         1.920979         0.718846
 H        -2.738529        -0.626231        -1.865939
 H        -3.029544        -2.822896         0.315150
 H        -4.080144        -4.183543        -1.495121
 H        -3.762674        -2.909880        -2.704560
 H        -2.418852        -3.928215        -1.831064
