19
Iteration:  2854
 C         1.508834         0.241989        -0.334657
 C         0.088669        -0.038668        -0.212553
 C        -1.063721        -0.094795         0.179152
 C        -2.497023        -0.411103         0.405320
 O        -3.193922         0.693079         0.979480
 C        -3.135884        -0.786583        -0.858679
 O        -4.455994        -1.376110        -0.833182
 C        -3.437679        -2.245202        -1.173537
 C        -3.537053        -3.102583        -2.364002
 H         1.898927         0.514806        -1.382684
 H         1.666862         1.017326         0.422659
 H         2.122809        -0.534766         0.094440
 H        -2.766235        -1.288259         1.132515
 H        -3.097277         1.472871         0.393414
 H        -2.937947        -0.061275        -1.669710
 H        -3.155251        -2.809215        -0.287415
 H        -4.121855        -4.021235        -2.110390
 H        -3.962103        -2.531988        -3.278950
 H        -2.471268        -3.470477        -2.621246
