19
Iteration:  3610
 C         1.595561         0.146939        -0.243736
 C         0.155323         0.112139        -0.114472
 C        -1.017378        -0.066702         0.227487
 C        -2.478892        -0.322137         0.373421
 O        -3.139300         0.738723         0.957228
 C        -3.172901        -0.917293        -0.880856
 O        -4.433344        -1.649593        -0.535995
 C        -3.441522        -2.350039        -1.238802
 C        -3.748003        -2.786726        -2.754260
 H         1.967234        -0.592866         0.476549
 H         2.078746        -0.194711        -1.189831
 H         1.926693         1.340316         0.016591
 H        -2.719608        -1.196686         1.074877
 H        -3.081669         1.575245         0.442265
 H        -3.286603        -0.057147        -1.657426
 H        -2.783590        -3.050844        -0.584280
 H        -4.585411        -3.548251        -2.564222
 H        -4.192748        -1.919326        -3.332374
 H        -2.968300        -3.467619        -3.109371
