19
Iteration:  3362
 C         1.544354         0.033053        -0.464381
 C         0.098069         0.032037        -0.114155
 C        -1.084320        -0.083612         0.207671
 C        -2.474484        -0.355926         0.544088
 O        -3.328847         0.719556         0.859439
 C        -3.184278        -0.869638        -0.776571
 O        -4.487983        -1.508122        -0.615137
 C        -3.361927        -2.322449        -1.177412
 C        -3.451573        -2.772386        -2.635118
 H         1.643693         0.382510        -1.617738
 H         2.011210         0.773401         0.158280
 H         1.979580        -0.864289        -0.464053
 H        -2.597518        -1.225647         1.285241
 H        -2.747381         1.420179         1.193480
 H        -2.859307        -0.008338        -1.405585
 H        -2.998134        -3.131728        -0.447165
 H        -4.132197        -3.707238        -2.709087
 H        -3.939826        -1.817013        -3.102189
 H        -2.436920        -3.026868        -3.075947
