19
Iteration:  4986charge 0 multiplicity 1
 C         1.612631         0.246434        -0.021238
 C         0.206785        -0.131940        -0.091446
 C        -1.051979        -0.141644        -0.073597
 C        -2.380691        -0.538267         0.230348
 O        -3.088445         0.446159         1.260058
 C        -3.393223        -0.800831        -0.856766
 O        -4.433589        -1.656516        -0.556820
 C        -3.442816        -2.146322        -1.429770
 C        -3.797338        -2.387164        -2.798695
 H         1.806233         0.737781         0.967986
 H         2.258572        -0.647369        -0.163510
 H         2.029288         0.833653        -0.827432
 H        -2.369200        -1.598682         0.803969
 H        -2.637821         1.269724         1.010960
 H        -3.366895        -0.008508        -1.663667
 H        -2.848064        -2.987631        -0.881127
 H        -4.249781        -3.344821        -2.765796
 H        -4.602154        -1.718402        -3.117589
 H        -2.814643        -2.278952        -3.382421
