19
Iteration:  1492
 C         1.451996         0.284551        -0.362335
 C         0.009003         0.176432        -0.181052
 C        -1.076395        -0.159074         0.287287
 C        -2.504313        -0.278411         0.392258
 O        -3.126274         0.973267         0.527604
 C        -2.963274        -1.048477        -0.839073
 O        -4.440814        -1.416665        -0.888780
 C        -3.380415        -2.458185        -0.862880
 C        -3.608829        -3.197770        -2.106351
 H         1.837320        -0.590673         0.227301
 H         1.599810         0.091605        -1.472541
 H         2.027912         1.221915        -0.171295
 H        -2.862398        -0.630670         1.390196
 H        -3.534184         0.889543        -0.318113
 H        -2.545636        -0.610301        -1.775456
 H        -3.669840        -3.012368         0.142542
 H        -4.515356        -3.741073        -2.077822
 H        -3.741417        -2.474938        -2.952163
 H        -2.753690        -3.751590        -2.428781
