19
Iteration:  4444
 C         1.577785        -0.028773        -0.473895
 C         0.120162        -0.099775        -0.051642
 C        -1.113738        -0.238621         0.186146
 C        -2.608095        -0.367733         0.470779
 O        -3.276775         0.808414         1.104190
 C        -3.407466        -0.858230        -0.772642
 O        -4.370933        -1.787675        -0.472648
 C        -3.296090        -2.210412        -1.370648
 C        -3.377201        -2.369350        -2.854076
 H         2.138384         0.913238        -0.760178
 H         2.028328        -0.520552         0.424783
 H         1.635753        -0.681582        -1.352278
 H        -2.669513        -1.295896         1.181132
 H        -2.581165         1.086299         1.732708
 H        -3.778992         0.042962        -1.437864
 H        -2.487200        -2.886215        -0.778355
 H        -4.120545        -3.163250        -3.248594
 H        -4.054496        -1.396310        -3.042682
 H        -2.602079        -2.255171        -3.686755
