19
Iteration:  3429charge 0 multiplicity 1
 C         1.568904         0.288950        -0.392389
 C         0.106825        -0.030557        -0.033180
 C        -1.059518        -0.341108         0.204868
 C        -2.489651        -0.383111         0.483447
 O        -3.152636         0.745177         0.883780
 C        -3.236809        -0.856316        -0.819190
 O        -4.490144        -1.479231        -0.709238
 C        -3.456154        -2.219419        -1.212309
 C        -3.529255        -2.885212        -2.559426
 H         1.766475        -0.062718        -1.533610
 H         1.565896         1.390147        -0.357687
 H         2.301832        -0.145187         0.179830
 H        -2.569092        -1.219246         1.233370
 H        -2.603973         1.240124         1.507196
 H        -3.275426        -0.094582        -1.637818
 H        -2.960727        -2.906191        -0.456798
 H        -4.413755        -3.550260        -2.581390
 H        -3.824410        -2.202582        -3.468812
 H        -2.663622        -3.472995        -3.006713
