19
Iteration:  4344charge 0 multiplicity 1
 C         1.408347         0.120411        -0.555353
 C         0.098623        -0.173160        -0.026393
 C        -1.134917        -0.191325         0.187563
 C        -2.539066        -0.500856         0.482580
 O        -3.113948         0.629328         1.181855
 C        -3.358507        -0.758962        -0.679975
 O        -4.579379        -1.503353        -0.770479
 C        -3.271851        -2.122284        -1.311582
 C        -3.274861        -2.608320        -2.684608
 H         2.049257         0.796979         0.105615
 H         1.725317        -0.920220        -0.429267
 H         1.341379         0.313154        -1.576673
 H        -2.537298        -1.502218         1.095927
 H        -2.334327         1.169549         1.386254
 H        -3.382861         0.107987        -1.368336
 H        -3.098409        -2.978844        -0.496843
 H        -3.861024        -3.547929        -2.782339
 H        -3.751321        -2.002239        -3.453598
 H        -2.304309        -2.529086        -3.269271
