19
Iteration:  4298
 C         1.381165         0.214698        -0.568966
 C        -0.002498        -0.104629        -0.128305
 C        -1.086196        -0.432807         0.429213
 C        -2.519422        -0.585481         0.551404
 O        -3.091107         0.695582         1.082980
 C        -3.225456        -0.815618        -0.842317
 O        -4.488957        -1.425933        -0.788488
 C        -3.373197        -2.272919        -1.173484
 C        -3.392669        -2.548389        -2.738458
 H         1.819101         0.553761         0.413958
 H         1.911721        -0.639259        -0.952308
 H         1.396131         1.039928        -1.211341
 H        -2.882349        -1.378199         1.313838
 H        -2.355332         1.238532         1.449586
 H        -3.052350        -0.075026        -1.535839
 H        -2.926352        -2.791100        -0.285554
 H        -4.043018        -3.324287        -3.078648
 H        -3.710263        -1.664079        -3.222633
 H        -2.368537        -2.632025        -3.216681
