19
Iteration:  3243charge 0 multiplicity 1
 C         1.376792         0.060383        -0.406483
 C         0.032074        -0.250818        -0.143537
 C        -1.178136        -0.277567         0.092964
 C        -2.630154        -0.318073         0.454017
 O        -3.128284         1.002427         0.780510
 C        -3.376845        -0.844437        -0.706691
 O        -4.394074        -1.740685        -0.493370
 C        -3.286664        -2.242344        -1.189440
 C        -3.251263        -2.614562        -2.604632
 H         1.751259         1.152666        -0.327365
 H         1.997864        -0.483765         0.300525
 H         1.629601        -0.277794        -1.497414
 H        -2.842853        -0.992173         1.259001
 H        -2.449413         1.483450         1.305865
 H        -3.609284        -0.094565        -1.498181
 H        -2.824198        -3.053729        -0.585501
 H        -3.489162        -3.696701        -2.731277
 H        -3.959394        -1.948118        -3.187304
 H        -2.188593        -2.323381        -2.855355
