19
Iteration:  1960
 C         1.378744         0.078957        -0.531928
 C        -0.085809        -0.163531        -0.205675
 C        -1.175267        -0.141991         0.328342
 C        -2.591037        -0.183453         0.460999
 O        -3.160258         1.141538         0.556328
 C        -3.162737        -0.879444        -0.826523
 O        -4.373885        -1.467840        -0.737223
 C        -3.364650        -2.399540        -0.937435
 C        -3.212459        -3.159365        -2.264085
 H         1.950069        -0.827467        -0.589684
 H         1.508147         0.707676        -1.510641
 H         1.686081         0.691955         0.328196
 H        -2.946497        -0.859826         1.269354
 H        -3.435283         1.411055         1.418256
 H        -3.051031        -0.413266        -1.837701
 H        -3.101273        -3.143894        -0.041670
 H        -3.875628        -4.006440        -2.210141
 H        -3.582420        -2.608131        -3.191774
 H        -2.152598        -3.423773        -2.307604
