19
Iteration:  1017charge 0 multiplicity 1
 C         1.317347        -0.119790        -0.321563
 C        -0.044880         0.078932        -0.019373
 C        -1.196338        -0.029401         0.176697
 C        -2.603022        -0.039792         0.347387
 O        -3.139865         1.292676         0.384350
 C        -3.166620        -0.972489        -0.871051
 O        -4.492219        -1.536652        -0.812284
 C        -3.306233        -2.468033        -0.875247
 C        -3.053412        -3.314646        -2.035037
 H         1.984893        -0.332733         0.430209
 H         1.365943        -0.752256        -1.257856
 H         1.610433         0.804052        -0.805073
 H        -3.061549        -0.573900         1.243220
 H        -4.028409         1.355013         0.052546
 H        -2.974680        -0.504221        -1.869850
 H        -3.201764        -3.058745         0.040871
 H        -3.778263        -4.141290        -2.012665
 H        -3.261496        -2.855473        -3.017127
 H        -2.008136        -3.518564        -2.062050
