19
Iteration:  4707charge 0 multiplicity 1
 C         1.468211        -0.053863        -0.546267
 C         0.090849         0.013078        -0.102518
 C        -1.048685        -0.111370         0.253380
 C        -2.501149        -0.447500         0.530548
 O        -3.213220         0.502720         1.259119
 C        -3.332671        -0.895093        -0.761373
 O        -4.536162        -1.564876        -0.751371
 C        -3.234844        -2.178197        -1.348201
 C        -3.417038        -2.373029        -2.736451
 H         1.758491        -1.036738        -0.968930
 H         1.731016         0.877049        -1.075727
 H         2.065220        -0.022423         0.361742
 H        -2.536357        -1.364921         1.198360
 H        -2.758338         1.363903         1.265672
 H        -3.263490        -0.081328        -1.462983
 H        -2.977031        -2.940081        -0.618534
 H        -4.110756        -3.164460        -3.014463
 H        -3.816084        -1.455714        -3.264534
 H        -2.511199        -2.528321        -3.271812
