19
Iteration:   227charge 0 multiplicity 1
 C         1.558807         0.242349        -0.169030
 C         0.115081         0.066169         0.183827
 C        -1.106633        -0.046296         0.123388
 C        -2.583413        -0.144163         0.159821
 O        -3.317938         1.187221         0.014633
 C        -3.117607        -1.004328        -1.038111
 O        -4.455693        -1.487538        -0.840675
 C        -3.466475        -2.425100        -0.764848
 C        -3.373948        -3.525972        -1.737366
 H         1.604643         0.789082        -1.087300
 H         2.105106         0.739962         0.624503
 H         2.065780        -0.654506        -0.217339
 H        -3.080645        -0.631943         1.004176
 H        -2.650891         1.799784         0.392559
 H        -3.023145        -0.617822        -2.058071
 H        -3.079746        -2.807390         0.293040
 H        -4.198255        -4.258743        -1.690448
 H        -3.328483        -3.284690        -2.819015
 H        -2.461559        -4.089733        -1.621115
