19
Iteration:  4129charge 0 multiplicity 1
 C         1.641459         0.193255        -0.134999
 C         0.172921         0.038197         0.015830
 C        -1.018308        -0.190299        -0.156269
 C        -2.370371        -0.467319         0.319844
 O        -3.183611         0.641148         1.078887
 C        -3.294807        -0.869720        -0.875795
 O        -4.508988        -1.535421        -0.522495
 C        -3.453730        -2.228114        -1.356472
 C        -3.707803        -2.693643        -2.706904
 H         1.929677        -0.763465        -0.005332
 H         1.927976         0.926834        -0.926277
 H         1.992020         0.665021         0.896946
 H        -2.289468        -1.470793         0.844413
 H        -2.495116         1.257346         1.396694
 H        -3.533384        -0.162834        -1.728001
 H        -3.132186        -2.999442        -0.670357
 H        -3.796549        -3.836817        -2.829703
 H        -4.548065        -2.143737        -3.228919
 H        -2.715687        -2.444404        -3.181651
