19
Iteration:  1812
 C         1.396073        -0.098321        -0.214782
 C        -0.047869        -0.221693        -0.209176
 C        -1.219366        -0.056901        -0.040400
 C        -2.620242        -0.102064         0.263042
 O        -3.161404         1.211962         0.531834
 C        -3.394728        -0.853915        -0.814651
 O        -4.333550        -1.826769        -0.343127
 C        -3.155815        -2.301770        -1.015943
 C        -3.239489        -2.927692        -2.370968
 H         1.788810        -0.099548        -1.261110
 H         1.574059         0.726742         0.389014
 H         2.012693        -0.902442         0.215726
 H        -2.589198        -0.584384         1.202443
 H        -3.601857         1.560101        -0.227889
 H        -3.789275        -0.113809        -1.480601
 H        -2.326060        -2.651211        -0.219117
 H        -3.516540        -3.984279        -2.230915
 H        -4.061447        -2.534751        -2.936856
 H        -2.300738        -2.717142        -2.907844
