19
Iteration:  2943
 C         1.443013         0.241384        -0.451047
 C         0.071404         0.044868        -0.014939
 C        -1.037918        -0.328072         0.311069
 C        -2.488451        -0.388913         0.485910
 O        -3.151634         0.953537         0.841959
 C        -3.168900        -0.940044        -0.820903
 O        -4.540324        -1.526539        -0.694427
 C        -3.445089        -2.311484        -1.161634
 C        -3.455339        -2.956986        -2.562529
 H         1.721806        -0.554604        -1.147165
 H         1.516854         1.177664        -1.060637
 H         2.230756         0.200520         0.361982
 H        -2.836939        -1.146064         1.312269
 H        -2.547484         1.681231         0.563957
 H        -2.986677        -0.314386        -1.731718
 H        -3.035769        -3.069675        -0.488280
 H        -4.275189        -3.609636        -2.941964
 H        -3.440442        -1.987024        -3.221844
 H        -2.414429        -3.426118        -2.699983
