19
Iteration:  3414
 C         1.473369         0.237384        -0.425832
 C         0.124838         0.057719        -0.016608
 C        -1.038530        -0.201248         0.262138
 C        -2.508270        -0.506953         0.441573
 O        -3.136823         0.791333         0.891690
 C        -3.218287        -0.869877        -0.855107
 O        -4.518236        -1.499338        -0.727564
 C        -3.329743        -2.301546        -1.180588
 C        -3.593938        -2.811467        -2.586798
 H         1.532422        -0.096860        -1.543760
 H         1.965538         1.215449        -0.336373
 H         2.151737        -0.551695         0.189142
 H        -2.791003        -1.283238         1.128071
 H        -2.490971         1.128229         1.527111
 H        -3.005622        -0.103358        -1.629472
 H        -3.099860        -3.141126        -0.418092
 H        -4.322365        -3.647468        -2.446494
 H        -3.810342        -2.024314        -3.263772
 H        -2.672181        -3.299419        -2.769716
