19
Iteration:   820
 C         1.545226         0.296706         0.090729
 C         0.104785         0.202809         0.002737
 C        -1.092302        -0.005665         0.022738
 C        -2.497690        -0.173274         0.155344
 O        -3.148112         1.103078         0.170699
 C        -3.138477        -1.083551        -0.859876
 O        -4.446554        -1.533207        -0.670020
 C        -3.372927        -2.488792        -0.907853
 C        -3.668837        -3.452651        -2.108065
 H         2.092628        -0.220102        -0.637722
 H         1.879495         1.395091         0.006691
 H         1.745951         0.093321         1.109186
 H        -2.749374        -0.631072         1.067297
 H        -2.673613         1.531623        -0.550813
 H        -3.044632        -0.595019        -1.851992
 H        -3.115653        -3.003685         0.065867
 H        -4.421724        -4.243427        -1.878528
 H        -4.091804        -2.873530        -2.938064
 H        -2.769103        -3.992559        -2.444339
