19
Iteration:  3460
 C         1.467601         0.396892        -0.273684
 C         0.101891        -0.231309        -0.124354
 C        -1.091713        -0.300146         0.111010
 C        -2.488258        -0.423767         0.377012
 O        -3.051689         0.753585         0.882671
 C        -3.245433        -0.915810        -0.864405
 O        -4.497497        -1.426313        -0.633360
 C        -3.486881        -2.270148        -1.175332
 C        -3.499137        -2.809671        -2.558415
 H         2.067990        -0.065114        -1.274814
 H         1.252601         1.468621        -0.516617
 H         2.156761         0.398313         0.619195
 H        -2.641673        -1.229950         1.070838
 H        -2.394416         1.067419         1.541368
 H        -3.229930        -0.263822        -1.802639
 H        -3.089720        -2.905212        -0.265208
 H        -4.279724        -3.616454        -2.494057
 H        -3.703380        -1.957438        -3.322822
 H        -2.557964        -3.377732        -2.719733
