19
Iteration:  2292
 C         1.536215         0.186429        -0.266182
 C         0.010675        -0.037643        -0.295514
 C        -1.094340        -0.187382         0.149177
 C        -2.517569        -0.269048         0.419517
 O        -3.223096         0.940162         0.466600
 C        -3.194930        -0.948576        -0.738161
 O        -4.505538        -1.638214        -0.602923
 C        -3.366614        -2.325696        -0.960136
 C        -3.384165        -2.896427        -2.339453
 H         1.864839         0.965442        -0.992291
 H         1.768157         0.633702         0.668039
 H         2.223980        -0.609314        -0.458579
 H        -2.632422        -0.968104         1.360803
 H        -2.720044         1.687333         0.895350
 H        -3.209397        -0.367380        -1.723503
 H        -2.881922        -3.119765        -0.250213
 H        -4.095268        -3.740267        -2.353656
 H        -4.053423        -2.190664        -2.927882
 H        -2.590541        -3.271446        -2.950191
