19
Iteration:  1730charge 0 multiplicity 1
 C         1.326067        -0.026138        -0.312833
 C        -0.059317         0.050438        -0.150261
 C        -1.203324        -0.152480         0.221181
 C        -2.616750        -0.134023         0.391512
 O        -3.135412         1.214066         0.323818
 C        -3.224117        -0.901976        -0.778967
 O        -4.313342        -1.833040        -0.421911
 C        -3.144605        -2.415878        -1.003820
 C        -3.458872        -2.962175        -2.396319
 H         1.850369         0.817271        -0.788960
 H         1.946692        -0.150592         0.719327
 H         1.499839        -1.025264        -0.835893
 H        -2.743941        -0.510831         1.435649
 H        -2.464031         1.854390         0.599566
 H        -3.204102        -0.190002        -1.667351
 H        -2.652795        -3.056819        -0.343337
 H        -3.988937        -3.965105        -2.491014
 H        -4.090919        -2.166378        -2.934584
 H        -2.509640        -3.081047        -3.047221
