19
Iteration:  2067
 C         1.415291         0.254711        -0.347695
 C         0.047620        -0.058281        -0.208311
 C        -1.122989        -0.187790         0.121323
 C        -2.585883        -0.221363         0.367731
 O        -3.167617         1.007041         0.754211
 C        -3.126800        -0.902181        -0.871099
 O        -4.391197        -1.479671        -0.849325
 C        -3.278749        -2.429668        -0.963519
 C        -3.521707        -3.147226        -2.169723
 H         1.885368         0.045392         0.669283
 H         1.806387        -0.381986        -1.142298
 H         1.709123         1.282993        -0.527598
 H        -2.861175        -1.042585         1.193877
 H        -2.834567         1.658966         0.145210
 H        -3.109225        -0.400744        -1.858870
 H        -3.152634        -2.905656         0.008120
 H        -4.331087        -3.822066        -1.949192
 H        -3.478361        -2.520694        -3.137449
 H        -2.719255        -3.928738        -2.304234
