19
Iteration:  3353
 C         1.517697         0.042879        -0.448820
 C         0.117541        -0.044609        -0.172281
 C        -1.021019        -0.059485         0.229989
 C        -2.487253        -0.353349         0.506471
 O        -3.333725         0.693255         0.852153
 C        -3.245956        -0.859541        -0.720925
 O        -4.458507        -1.533966        -0.654534
 C        -3.308517        -2.271659        -1.150350
 C        -3.479114        -2.724526        -2.575310
 H         1.539386         0.540428        -1.462158
 H         2.078863         0.719415         0.201114
 H         1.972066        -0.936700        -0.506376
 H        -2.547488        -1.191257         1.364382
 H        -2.891005         1.496599         1.145175
 H        -3.315357        -0.189176        -1.639201
 H        -3.146730        -3.038816        -0.406274
 H        -4.020565        -3.659669        -2.809120
 H        -3.836030        -2.023178        -3.428581
 H        -2.390213        -2.912787        -2.911405
