19
Iteration:   958
 C         1.446358         0.113531        -0.204288
 C         0.012105        -0.137571        -0.064845
 C        -1.187136        -0.142449         0.045417
 C        -2.648575        -0.120314         0.297546
 O        -3.309751         1.114594         0.297159
 C        -3.161179        -0.924429        -0.953884
 O        -4.443110        -1.440249        -0.720865
 C        -3.358815        -2.369420        -0.825917
 C        -3.158880        -3.293908        -2.003870
 H         2.257695        -0.485306         0.304332
 H         1.890985         0.080160        -1.184740
 H         1.532350         1.159495         0.216065
 H        -3.055188        -0.637796         1.166885
 H        -2.637071         1.803127         0.069248
 H        -2.959225        -0.557704        -1.950277
 H        -3.093008        -2.771451         0.179636
 H        -3.654380        -4.202755        -1.849949
 H        -3.480724        -2.786843        -2.884558
 H        -2.201993        -3.771220        -2.061032
