19
Iteration:  4752
 C         1.354296         0.182072        -0.552339
 C        -0.027418        -0.194906        -0.190707
 C        -1.134448        -0.370901         0.222539
 C        -2.506426        -0.581876         0.561051
 O        -3.163434         0.518706         1.304834
 C        -3.225232        -0.733228        -0.735749
 O        -4.511439        -1.314720        -0.678934
 C        -3.339603        -2.148374        -1.287412
 C        -3.237944        -2.550880        -2.889104
 H         1.812764        -0.780572        -0.521499
 H         1.543940         0.816212        -1.388374
 H         1.910084         0.668154         0.282163
 H        -2.520476        -1.573442         1.170599
 H        -2.457254         1.201010         1.385028
 H        -3.093760         0.097624        -1.327525
 H        -3.106026        -2.977400        -0.608691
 H        -4.189386        -3.104677        -3.015625
 H        -3.379694        -1.660970        -3.580172
 H        -2.435924        -3.067681        -3.206022
