19
Iteration:   596charge 0 multiplicity 1
 C         1.418988        -0.127845        -0.205212
 C        -0.085514        -0.026441        -0.209567
 C        -1.234090         0.042317         0.224994
 C        -2.753155        -0.008038         0.309396
 O        -3.308624         1.229752         0.048985
 C        -3.069599        -0.939625        -0.867439
 O        -4.393104        -1.557540        -0.783131
 C        -3.319244        -2.414712        -0.712592
 C        -3.069191        -3.320348        -1.903481
 H         1.855356         0.838009         0.104947
 H         1.897277        -0.836452         0.406155
 H         1.724621        -0.160777        -1.298456
 H        -2.984141        -0.628024         1.165373
 H        -3.323532         1.751571         0.936270
 H        -2.678407        -0.560915        -1.786411
 H        -3.024709        -2.740810         0.256020
 H        -3.831108        -4.138371        -1.992915
 H        -3.129562        -2.786817        -2.925028
 H        -2.054518        -3.825569        -2.054876
