19
Iteration:  1371charge 0 multiplicity 1
 C         1.538305         0.251680        -0.185638
 C         0.041437         0.204330        -0.227768
 C        -1.129465        -0.099944         0.075603
 C        -2.503367        -0.350246         0.321507
 O        -3.110411         1.007376         0.449906
 C        -3.094436        -0.954161        -0.901686
 O        -4.536655        -1.404292        -0.752154
 C        -3.450710        -2.374281        -0.937365
 C        -3.534710        -3.382091        -2.082759
 H         2.106951        -0.368849        -0.990614
 H         1.938737         1.335068        -0.132993
 H         1.650859         0.001874         0.901912
 H        -2.584094        -1.134648         1.104670
 H        -2.411819         1.527396         0.963931
 H        -2.983530        -0.518371        -1.938791
 H        -3.354217        -3.073533         0.001764
 H        -4.141502        -4.180852        -1.751370
 H        -3.836080        -2.924127        -3.039881
 H        -2.549743        -3.727001        -2.320949
