19
Iteration:   732charge 0 multiplicity 1
 C         1.404686         0.381624         0.037604
 C         0.102570        -0.135432        -0.156740
 C        -1.084618        -0.178186         0.093040
 C        -2.607156        -0.178929         0.127381
 O        -3.193090         1.148998         0.183316
 C        -3.144299        -0.961613        -0.982797
 O        -4.443289        -1.391381        -0.697665
 C        -3.384031        -2.478037        -0.756305
 C        -3.376735        -3.438353        -1.998437
 H         1.783185         0.726355        -0.917133
 H         1.407004         1.143077         0.956816
 H         2.100478        -0.449564         0.255856
 H        -2.720146        -0.754040         1.058003
 H        -2.645967         1.818581        -0.154598
 H        -3.086162        -0.697252        -2.094878
 H        -3.391057        -3.098936         0.270074
 H        -4.151678        -4.245833        -2.029652
 H        -3.785522        -2.801999        -2.775368
 H        -2.360939        -3.769694        -2.001580
