19
Iteration:   158
 C         1.407939         0.266272        -0.047161
 C        -0.006264         0.232606        -0.232689
 C        -1.108737        -0.151420         0.193099
 C        -2.598063        -0.162432         0.226177
 O        -3.164483         1.219591         0.112168
 C        -3.074338        -1.073714        -0.945800
 O        -4.384993        -1.425891        -0.995000
 C        -3.455608        -2.539501        -0.617407
 C        -3.392919        -3.532841        -1.740002
 H         1.806517         1.261362        -0.106645
 H         1.534623        -0.281586         0.836142
 H         1.957102        -0.347251        -0.785886
 H        -2.843928        -0.521187         1.252666
 H        -2.782465         1.549276        -0.689750
 H        -2.582430        -0.656115        -1.905918
 H        -3.515221        -2.665617         0.519818
 H        -4.232141        -4.286729        -1.795975
 H        -3.485208        -2.981033        -2.693394
 H        -2.437818        -4.105577        -1.844434
