19
Iteration:  4343charge 0 multiplicity 1
 C         1.398285         0.127956        -0.556543
 C         0.101214        -0.179919        -0.014761
 C        -1.142541        -0.193670         0.180975
 C        -2.535582        -0.507116         0.486758
 O        -3.114552         0.634510         1.181051
 C        -3.349712        -0.748882        -0.683359
 O        -4.577998        -1.498840        -0.769418
 C        -3.275891        -2.124273        -1.302219
 C        -3.283240        -2.612710        -2.696976
 H         2.050508         0.786876         0.113734
 H         1.729978        -0.906575        -0.473397
 H         1.359699         0.307620        -1.586627
 H        -2.510886        -1.516722         1.107494
 H        -2.322873         1.174945         1.383679
 H        -3.372534         0.086223        -1.334331
 H        -3.086615        -2.996781        -0.518228
 H        -3.815667        -3.570513        -2.811407
 H        -3.750041        -1.997410        -3.431456
 H        -2.265979        -2.565356        -3.261611
