19
Iteration:  4303charge 0 multiplicity 1
 C         1.364425         0.221723        -0.575781
 C        -0.016077        -0.144367        -0.095434
 C        -1.089742        -0.432823         0.387799
 C        -2.525870        -0.549384         0.495855
 O        -3.107772         0.713955         1.140222
 C        -3.203436        -0.817687        -0.844605
 O        -4.492625        -1.432432        -0.755587
 C        -3.368188        -2.284053        -1.175405
 C        -3.363566        -2.557550        -2.771432
 H         2.019361         0.578118         0.262567
 H         1.873094        -0.766295        -0.753106
 H         1.474160         1.137654        -1.285672
 H        -2.835981        -1.271492         1.190635
 H        -2.334914         1.182277         1.481092
 H        -3.016502         0.025805        -1.637368
 H        -3.051813        -2.912545        -0.329241
 H        -4.104509        -3.381534        -2.989569
 H        -3.790737        -1.694443        -3.406855
 H        -2.309147        -2.531412        -3.000956
