19
Iteration:  4562
 C         1.451432        -0.020684        -0.267897
 C         0.048456        -0.068263        -0.052822
 C        -1.139230        -0.408878         0.048088
 C        -2.539137        -0.380808         0.479693
 O        -3.044288         0.873233         0.988412
 C        -3.515173        -0.945444        -0.560054
 O        -4.360767        -2.008925        -0.558379
 C        -3.214539        -2.069558        -1.413489
 C        -3.553194        -2.201163        -2.801318
 H         1.493694         0.393048        -1.405363
 H         1.901460         0.763689         0.445925
 H         2.004178        -0.900503        -0.362953
 H        -2.424001        -0.983281         1.390602
 H        -2.320167         1.489412         0.770042
 H        -3.682897         0.070994        -1.089597
 H        -2.287429        -2.686809        -1.080212
 H        -3.799523        -3.192411        -3.211349
 H        -4.301481        -1.525141        -3.224843
 H        -2.676100        -2.032980        -3.554839
