19
Iteration:  3942
 C         1.457583         0.001707        -0.411184
 C         0.056506        -0.024011        -0.220900
 C        -1.077885        -0.334649         0.144981
 C        -2.571536        -0.409356         0.541226
 O        -3.245496         0.831665         1.057217
 C        -3.322898        -0.785260        -0.804012
 O        -4.498393        -1.594267        -0.603368
 C        -3.263190        -2.222559        -1.198204
 C        -3.326362        -2.635101        -2.754009
 H         1.655465         0.364332        -1.305746
 H         1.911639         0.652330         0.339834
 H         2.131017        -0.908987        -0.393691
 H        -2.605219        -1.178581         1.254997
 H        -2.537540         1.462263         1.255941
 H        -3.436039         0.055247        -1.428996
 H        -2.770514        -2.810772        -0.450910
 H        -3.469414        -3.762469        -2.840162
 H        -4.173796        -2.231734        -3.274274
 H        -2.347966        -2.421030        -3.257280
