19
Iteration:  3330
 C         1.513813         0.020553        -0.457156
 C         0.085878        -0.129466        -0.170110
 C        -1.114191        -0.103566         0.149301
 C        -2.562506        -0.332369         0.459548
 O        -3.307892         0.777780         0.929789
 C        -3.200463        -0.795335        -0.852927
 O        -4.493055        -1.612210        -0.556725
 C        -3.277973        -2.243404        -1.141964
 C        -3.366180        -2.731550        -2.544010
 H         1.480504         0.864242        -1.279473
 H         1.959248         0.522474         0.389607
 H         1.980769        -0.895673        -0.765668
 H        -2.810586        -1.314818         1.093508
 H        -2.654078         1.435581         1.260742
 H        -3.127495        -0.071750        -1.738252
 H        -2.904021        -2.908098        -0.338088
 H        -4.014112        -3.592614        -2.898214
 H        -3.816419        -1.901183        -3.246669
 H        -2.333814        -2.898604        -3.020701
