19
Iteration:   529
 C         1.384346        -0.200831        -0.185955
 C        -0.029786        -0.041557        -0.068403
 C        -1.243204        -0.007840         0.147766
 C        -2.684737        -0.012124         0.142183
 O        -3.349099         1.248135         0.155529
 C        -3.313669        -0.855380        -0.966491
 O        -4.468360        -1.645710        -0.678850
 C        -3.122042        -2.271970        -0.770049
 C        -2.956395        -3.345304        -1.883001
 H         1.926769         0.183857         0.709949
 H         1.712453        -1.200739        -0.315951
 H         1.615060         0.434161        -1.096329
 H        -3.151311        -0.348005         1.087610
 H        -2.747612         1.970086         0.165895
 H        -3.259367        -0.476537        -2.006021
 H        -2.730479        -2.559990         0.174916
 H        -3.493536        -4.251997        -1.523687
 H        -3.452675        -2.944096        -2.823557
 H        -1.874520        -3.498350        -2.286128
