19
Iteration:   446charge 0 multiplicity 1
 C         1.439511        -0.100694        -0.120210
 C         0.041416        -0.033994         0.157596
 C        -1.178737        -0.023319         0.023747
 C        -2.625548        -0.008925         0.093809
 O        -3.277321         1.253139        -0.010881
 C        -3.378797        -0.894661        -0.885743
 O        -4.530071        -1.786076        -0.449500
 C        -3.289862        -2.344171        -0.813467
 C        -2.956937        -3.166742        -2.002870
 H         1.888612        -0.763687         0.618263
 H         1.430918        -0.617581        -1.140553
 H         2.120673         0.763375        -0.198744
 H        -2.954402        -0.317594         1.105890
 H        -3.219209         1.832232        -0.854678
 H        -3.610878        -0.482552        -1.836316
 H        -2.675935        -2.495973         0.154336
 H        -3.387579        -4.166310        -2.072500
 H        -3.425756        -2.775610        -2.905808
 H        -1.978444        -3.455630        -2.220922
