19
Iteration:  3982charge 0 multiplicity 1
 C         1.455915         0.105460        -0.360721
 C         0.046822        -0.056835         0.051590
 C        -1.173760        -0.246961         0.160570
 C        -2.502640        -0.501573         0.482204
 O        -3.043620         0.895347         0.853941
 C        -3.310582        -0.881184        -0.729858
 O        -4.508592        -1.703405        -0.594126
 C        -3.281202        -2.279165        -1.263304
 C        -3.496699        -2.560218        -2.746069
 H         1.451688         0.280596        -1.554095
 H         1.696693         1.099835        -0.016724
 H         2.189346        -0.668285        -0.022531
 H        -2.636219        -1.274136         1.348257
 H        -2.295307         1.375027         1.284712
 H        -3.324378        -0.101927        -1.498504
 H        -2.784020        -3.080179        -0.720806
 H        -4.074868        -3.396618        -3.092182
 H        -3.850364        -1.551820        -3.058244
 H        -2.503102        -2.606324        -3.223474
