19
Iteration:  3807
 C         1.342567        -0.019794        -0.646268
 C        -0.021989        -0.239340        -0.162343
 C        -1.157704        -0.270674         0.332322
 C        -2.602040        -0.354562         0.554710
 O        -3.312797         0.925047         1.073457
 C        -3.152390        -0.894294        -0.772017
 O        -4.402588        -1.570277        -0.619217
 C        -3.236465        -2.300339        -1.232059
 C        -3.187110        -2.536358        -2.621292
 H         1.419128         1.032719        -0.523121
 H         2.103821        -0.623410        -0.168870
 H         1.325826        -0.112193        -1.752820
 H        -2.759353        -1.009407         1.386479
 H        -2.975540         1.511668         0.373016
 H        -2.908191        -0.266569        -1.675752
 H        -3.026164        -3.168774        -0.573686
 H        -4.135172        -3.046417        -2.923802
 H        -3.294819        -1.492934        -3.174246
 H        -2.233436        -3.010885        -2.922523
