19
Iteration:   609
 C         1.396967        -0.050378        -0.231814
 C        -0.062703        -0.032306        -0.221328
 C        -1.209284        -0.121507         0.262116
 C        -2.640732        -0.041630         0.311233
 O        -3.405915         1.233940         0.038591
 C        -3.113808        -0.970882        -0.825296
 O        -4.396716        -1.462684        -0.851164
 C        -3.141360        -2.417544        -0.678216
 C        -3.122725        -3.323370        -1.927998
 H         1.733568         0.971852         0.021356
 H         1.701595        -0.806833         0.542511
 H         1.922639        -0.387947        -1.181235
 H        -3.091763        -0.261889         1.313387
 H        -3.348269         1.820297         0.758855
 H        -2.792042        -0.594833        -1.806187
 H        -3.188455        -2.922701         0.337057
 H        -3.966966        -4.057981        -1.904699
 H        -3.328350        -2.614521        -2.756376
 H        -2.188592        -3.864305        -1.895442
