19
Iteration:  4836charge 0 multiplicity 1
 C         1.308299         0.349784        -0.494882
 C        -0.023519        -0.118201        -0.103002
 C        -1.024937        -0.590113         0.425617
 C        -2.472483        -0.635140         0.626644
 O        -2.987536         0.508602         1.212307
 C        -3.136959        -0.871659        -0.772561
 O        -4.555940        -1.242782        -0.821336
 C        -3.504460        -2.158018        -1.376351
 C        -3.422060        -2.518369        -2.798849
 H         2.236539        -0.238688        -0.129421
 H         1.535908         0.166570        -1.602440
 H         1.334929         1.385428        -0.207911
 H        -2.618944        -1.424681         1.335171
 H        -2.626419         1.242261         0.697434
 H        -2.756110        -0.025755        -1.446402
 H        -3.138898        -2.943544        -0.709747
 H        -3.807249        -3.545719        -2.957721
 H        -3.916376        -1.639864        -3.356403
 H        -2.346097        -2.627816        -3.211858
