19
Iteration:  1355charge 0 multiplicity 1
 C         1.573236         0.277490        -0.149185
 C         0.141695         0.112976        -0.169572
 C        -1.061200        -0.120085         0.068082
 C        -2.504792        -0.244295         0.232954
 O        -3.212172         0.986604         0.492006
 C        -3.196660        -0.967812        -0.958683
 O        -4.502705        -1.455169        -0.700894
 C        -3.474192        -2.425620        -0.891823
 C        -3.528584        -3.338278        -2.123209
 H         1.873471        -0.177025        -1.048253
 H         1.847701         1.300862        -0.120458
 H         2.090735        -0.272107         0.633928
 H        -2.659516        -0.627879         1.254411
 H        -2.531766         1.732318         0.253942
 H        -2.896031        -0.365760        -1.797601
 H        -3.144830        -2.801894         0.021515
 H        -4.207774        -4.220769        -1.929406
 H        -3.971902        -2.810997        -2.992180
 H        -2.470609        -3.671631        -2.324660
