19
Iteration:  2636
 C         1.535644         0.121432        -0.197315
 C         0.003907        -0.016147        -0.230818
 C        -1.168754        -0.232956        -0.014543
 C        -2.517364        -0.296817         0.320700
 O        -3.261453         0.954831         0.696022
 C        -3.198381        -0.895104        -0.819473
 O        -4.419803        -1.654772        -0.525575
 C        -3.278679        -2.302404        -1.068840
 C        -3.467170        -2.838918        -2.424405
 H         1.874036         0.385746         0.876179
 H         2.186082        -0.786292        -0.323166
 H         1.707388         0.823591        -1.032587
 H        -2.769707        -1.092197         1.055298
 H        -2.552524         1.589658         0.930906
 H        -3.277805        -0.051422        -1.620031
 H        -2.776449        -3.003382        -0.206826
 H        -3.933302        -3.820592        -2.555909
 H        -4.143707        -2.232605        -3.043560
 H        -2.438003        -2.970669        -2.868498
