19
Iteration:   970
 C         1.494218         0.148707        -0.260675
 C         0.030710        -0.201677        -0.045870
 C        -1.175017        -0.162886         0.126271
 C        -2.649924        -0.208061         0.220416
 O        -3.368225         1.161901         0.241104
 C        -3.171026        -0.882256        -0.907660
 O        -4.477170        -1.452527        -0.759071
 C        -3.337524        -2.368680        -0.788823
 C        -3.135080        -3.277278        -1.967539
 H         1.852538        -0.583432         0.503370
 H         1.684661        -0.065744        -1.325810
 H         1.870299         1.182271        -0.040059
 H        -2.808827        -0.771005         1.173000
 H        -2.765374         1.860470         0.690563
 H        -2.943609        -0.348040        -1.811272
 H        -2.906676        -2.797827         0.154600
 H        -3.846643        -4.069309        -1.927402
 H        -3.335020        -2.843822        -2.936316
 H        -2.073383        -3.365519        -2.003143
