19
Iteration:  1932
 C         1.374027         0.002795        -0.507581
 C        -0.034512        -0.114428        -0.139513
 C        -1.203430        -0.178149         0.286149
 C        -2.594325        -0.165612         0.406676
 O        -3.249642         1.089056         0.487347
 C        -3.233902        -0.814531        -0.817523
 O        -4.384624        -1.591583        -0.682063
 C        -3.101538        -2.254312        -0.988867
 C        -3.266942        -3.080201        -2.196607
 H         1.714630        -1.059122        -0.902694
 H         1.533495         0.775674        -1.220126
 H         2.100784         0.244176         0.295670
 H        -2.945169        -0.797804         1.267794
 H        -3.391128         1.411774         1.404787
 H        -3.279832        -0.280384        -1.740525
 H        -2.673084        -2.856561        -0.167205
 H        -4.202771        -3.693588        -1.965609
 H        -3.662236        -2.610470        -3.133714
 H        -2.424146        -3.715220        -2.519268
