19
Iteration:  1788
 C         1.551936        -0.051392        -0.281735
 C         0.074935        -0.225894        -0.008880
 C        -1.199455        -0.096343        -0.085083
 C        -2.703443        -0.059135         0.255487
 O        -3.192787         1.278387         0.549129
 C        -3.515575        -0.865340        -0.746182
 O        -4.391616        -1.934602        -0.364673
 C        -3.138362        -2.214978        -1.096617
 C        -3.290431        -2.976338        -2.386576
 H         1.796354         0.215561        -1.335398
 H         1.997487         0.587423         0.547846
 H         2.173098        -0.971376        -0.212369
 H        -2.664510        -0.526469         1.249811
 H        -3.295995         1.793896        -0.306490
 H        -3.774948        -0.201245        -1.569885
 H        -2.460647        -2.692358        -0.341446
 H        -3.626384        -4.024971        -2.067974
 H        -4.000919        -2.632603        -3.135966
 H        -2.260610        -3.060426        -2.852848
