19
Iteration:  4770
 C         1.372133         0.215407        -0.556539
 C         0.036378        -0.162796        -0.143227
 C        -1.073859        -0.432476         0.314582
 C        -2.551970        -0.603890         0.613206
 O        -3.058847         0.506318         1.300598
 C        -3.261917        -0.782895        -0.751037
 O        -4.535659        -1.368895        -0.856254
 C        -3.413987        -2.072540        -1.372154
 C        -3.340921        -2.521930        -2.730349
 H         2.199276        -0.604801        -0.702627
 H         1.250990         0.763344        -1.559968
 H         1.680639         1.036155         0.063160
 H        -2.842525        -1.508947         1.256125
 H        -2.374187         1.202286         1.373816
 H        -3.100941         0.075312        -1.512641
 H        -2.991776        -2.906492        -0.785112
 H        -4.125084        -3.260797        -2.939673
 H        -3.236924        -1.591049        -3.340213
 H        -2.252355        -2.970747        -2.714870
