19
Iteration:  2452
 C         1.430350         0.010381        -0.515738
 C         0.005289        -0.000369        -0.119126
 C        -1.174940        -0.293615         0.093332
 C        -2.649752        -0.323149         0.484939
 O        -3.149836         1.138068         0.775494
 C        -3.344004        -0.932004        -0.766268
 O        -4.588934        -1.581070        -0.644325
 C        -3.293348        -2.331444        -1.021159
 C        -3.007861        -2.855488        -2.395646
 H         1.581148        -0.970541        -0.952441
 H         1.535664         0.728377        -1.445953
 H         2.215666         0.196294         0.376001
 H        -2.855225        -0.995162         1.296046
 H        -3.190473         1.454758        -0.168580
 H        -3.350991        -0.234031        -1.666437
 H        -3.162984        -2.999935        -0.062694
 H        -3.342529        -3.945771        -2.525950
 H        -3.377132        -2.205652        -3.241175
 H        -1.937826        -3.109905        -2.097503
