19
Iteration:   665
 C         1.483817         0.141977        -0.240736
 C         0.068853         0.097750         0.229080
 C        -1.169374        -0.020996         0.204774
 C        -2.569987        -0.115685         0.154442
 O        -3.225284         1.226033         0.176855
 C        -3.133366        -0.995921        -0.960082
 O        -4.583276        -1.543731        -0.808078
 C        -3.462459        -2.450282        -0.843208
 C        -3.184338        -3.432760        -1.955507
 H         1.755080         0.849238        -1.014048
 H         2.383469         0.044472         0.493390
 H         1.544885        -0.684801        -1.005783
 H        -3.068494        -0.551202         1.067944
 H        -2.466179         1.795369         0.474548
 H        -2.757781        -0.629486        -1.959699
 H        -3.373531        -2.850014         0.264412
 H        -3.962501        -4.256489        -1.747458
 H        -3.394527        -3.265254        -3.032438
 H        -2.240596        -3.923857        -1.799480
