19
Iteration:   629charge 0 multiplicity 1
 C         1.435763         0.052065        -0.243095
 C        -0.050573        -0.110034        -0.057020
 C        -1.226156        -0.072508         0.193577
 C        -2.696862        -0.112753         0.321686
 O        -3.342273         1.137961         0.024218
 C        -3.049487        -0.930438        -0.848560
 O        -4.383284        -1.479939        -0.829736
 C        -3.282500        -2.321416        -0.739639
 C        -3.170315        -3.329634        -1.897050
 H         1.674758         1.123194        -0.291214
 H         2.012939        -0.362185         0.513367
 H         1.690372        -0.512188        -1.167908
 H        -2.990654        -0.551422         1.260156
 H        -3.060122         1.863936         0.599148
 H        -2.805913        -0.588956        -1.814764
 H        -3.092527        -2.757376         0.217659
 H        -4.027390        -4.035623        -1.733265
 H        -3.237778        -2.766695        -2.873336
 H        -2.188228        -3.917792        -1.883571
