19
Iteration:  1214charge 0 multiplicity 1
 C         1.509663         0.071033        -0.221871
 C         0.078979        -0.150743         0.017134
 C        -1.117096        -0.128145         0.044108
 C        -2.667435        -0.107108         0.163768
 O        -3.180976         1.279792         0.310179
 C        -3.304152        -0.935009        -0.890489
 O        -4.519526        -1.683766        -0.494629
 C        -3.266038        -2.362874        -0.878433
 C        -3.254081        -3.156217        -2.184312
 H         1.763177         0.941453        -0.815840
 H         2.239029         0.052962         0.782988
 H         1.928028        -0.753744        -0.865512
 H        -2.782301        -0.584723         1.189363
 H        -4.142303         1.312363         0.285346
 H        -3.467895        -0.291104        -1.798867
 H        -2.636668        -2.796919        -0.145393
 H        -3.671769        -4.135320        -2.031868
 H        -3.652847        -2.589119        -3.018557
 H        -2.236653        -3.340072        -2.510969
