19
Iteration:   630
 C         1.438514         0.051565        -0.240914
 C        -0.052190        -0.107457        -0.050609
 C        -1.230709        -0.067248         0.193715
 C        -2.692157        -0.112577         0.319218
 O        -3.337659         1.132827         0.027530
 C        -3.050792        -0.931268        -0.856447
 O        -4.384181        -1.480162        -0.828101
 C        -3.285680        -2.319476        -0.741378
 C        -3.168955        -3.334330        -1.900952
 H         1.648343         1.125054        -0.330560
 H         2.048436        -0.369295         0.515038
 H         1.711792        -0.499094        -1.180603
 H        -3.017089        -0.535321         1.280401
 H        -3.051750         1.891990         0.602146
 H        -2.813792        -0.598835        -1.825116
 H        -3.088783        -2.759929         0.250250
 H        -4.031257        -4.053415        -1.767684
 H        -3.262399        -2.766831        -2.862715
 H        -2.205120        -3.901187        -1.846825
