19
Iteration:  2950
 C         1.437531         0.237748        -0.458984
 C         0.073811         0.004226        -0.024920
 C        -1.069725        -0.327676         0.306675
 C        -2.568123        -0.420087         0.464156
 O        -3.156852         0.996500         0.853020
 C        -3.121510        -0.910051        -0.820448
 O        -4.494957        -1.518918        -0.690230
 C        -3.421672        -2.383818        -1.136650
 C        -3.440470        -2.896214        -2.576082
 H         1.797915        -0.654868        -1.125432
 H         1.537701         1.198805        -0.911485
 H         2.127233         0.441044         0.296748
 H        -2.816376        -1.156903         1.205797
 H        -2.379057         1.524433         0.579007
 H        -3.216327        -0.252811        -1.718695
 H        -2.993571        -3.079026        -0.431724
 H        -4.313132        -3.567143        -2.655385
 H        -3.545391        -2.103922        -3.312593
 H        -2.559702        -3.525880        -2.838372
