19
Iteration:   272charge 0 multiplicity 1
 C         1.416884         0.189568         0.038285
 C        -0.053983         0.085665        -0.338281
 C        -1.184362        -0.024441         0.152247
 C        -2.618361        -0.087522         0.235370
 O        -3.118437         1.226446        -0.031545
 C        -3.078059        -1.033169        -0.942280
 O        -4.426789        -1.553152        -0.755265
 C        -3.380025        -2.450228        -0.680668
 C        -3.340228        -3.475150        -1.863620
 H         1.974882         0.066906        -0.833137
 H         1.820841         1.009632         0.612724
 H         1.685736        -0.519353         0.652555
 H        -2.970817        -0.484358         1.193437
 H        -2.977609         1.623039         0.827943
 H        -2.771798        -0.760581        -1.936117
 H        -3.329452        -2.980245         0.315795
 H        -4.017316        -4.319896        -1.801681
 H        -3.593496        -2.952289        -2.806413
 H        -2.348528        -3.781206        -2.160468
