19
Iteration:  2860charge 0 multiplicity 1
 C         1.533042         0.269158        -0.337401
 C         0.099113        -0.075420        -0.253585
 C        -1.070986        -0.109999         0.163119
 C        -2.539438        -0.350596         0.494621
 O        -3.204181         0.682770         0.983271
 C        -3.119869        -0.834211        -0.881466
 O        -4.455864        -1.345848        -0.841295
 C        -3.444293        -2.308850        -1.149576
 C        -3.530920        -3.048474        -2.370362
 H         1.852938         0.430798        -1.357089
 H         1.695005         1.105032         0.367569
 H         2.070538        -0.572184         0.209522
 H        -2.797897        -1.264604         1.007161
 H        -3.060562         1.314098         0.253216
 H        -2.990018        -0.116668        -1.722648
 H        -2.943756        -2.738726        -0.220600
 H        -4.106932        -3.977232        -2.198504
 H        -3.867906        -2.597849        -3.231196
 H        -2.519981        -3.356019        -2.635829
