19
Iteration:  3554
 C         1.548528         0.343257        -0.211772
 C         0.220857        -0.051202         0.004576
 C        -0.992860        -0.285604         0.048703
 C        -2.443542        -0.468123         0.309496
 O        -3.182174         0.772629         0.895439
 C        -3.244838        -0.890727        -0.928886
 O        -4.482952        -1.511472        -0.612345
 C        -3.378096        -2.413118        -1.153955
 C        -3.732714        -2.730562        -2.553370
 H         2.111060        -0.632604        -0.130487
 H         1.626044         0.719293        -1.248882
 H         1.943273         1.253653         0.461396
 H        -2.717723        -1.248810         1.103270
 H        -2.543082         1.491533         0.991146
 H        -3.347042        -0.099404        -1.709655
 H        -2.763587        -3.043040        -0.479994
 H        -4.421884        -3.635801        -2.589506
 H        -4.193764        -1.960363        -3.129858
 H        -2.885170        -2.966077        -3.241781
