19
Iteration:  2675charge 0 multiplicity 1
 C         1.502692         0.231546        -0.261699
 C         0.086574        -0.018024         0.015064
 C        -1.075222        -0.150868         0.241501
 C        -2.574246        -0.307413         0.309228
 O        -2.985239         0.966770         0.730740
 C        -3.325005        -0.858934        -0.894546
 O        -4.506887        -1.729573        -0.576235
 C        -3.408497        -2.319246        -1.193467
 C        -3.507523        -2.983379        -2.510737
 H         1.908047         1.094875         0.352529
 H         2.189274        -0.579329        -0.196420
 H         1.621218         0.554872        -1.295892
 H        -2.664798        -1.010634         1.172860
 H        -2.400147         1.660341         0.395168
 H        -3.497635        -0.212020        -1.742762
 H        -3.012657        -3.003201        -0.524947
 H        -4.033495        -3.932680        -2.202271
 H        -4.214210        -2.447753        -3.151472
 H        -2.514231        -2.935375        -3.010637
