19
Iteration:  1758
 C         1.423863        -0.055489        -0.293344
 C         0.000175         0.032112        -0.070297
 C        -1.231023        -0.103292         0.148362
 C        -2.697339        -0.155240         0.262983
 O        -3.102070         1.197362         0.437716
 C        -3.441139        -0.863037        -0.850307
 O        -4.325359        -1.874445        -0.303432
 C        -3.148171        -2.292948        -1.068241
 C        -3.373641        -2.980657        -2.399117
 H         1.965071         0.428259        -1.117961
 H         2.006659         0.092014         0.517254
 H         1.645875        -1.103527        -0.469736
 H        -2.774698        -0.625715         1.219772
 H        -2.456835         1.780773         0.063727
 H        -3.574265        -0.178258        -1.657273
 H        -2.374974        -2.846248        -0.398231
 H        -3.758764        -3.964959        -2.385104
 H        -3.914763        -2.422724        -3.114719
 H        -2.430225        -3.185391        -2.834863
