19
Iteration:  4958
 C         1.512187         0.190155        -0.053776
 C         0.092956        -0.035868        -0.097601
 C        -1.131690        -0.099146        -0.017496
 C        -2.386415        -0.519664         0.313837
 O        -3.038699         0.388014         1.283374
 C        -3.251354        -0.791969        -0.859974
 O        -4.371011        -1.569719        -0.593453
 C        -3.417573        -2.168277        -1.402415
 C        -3.780341        -2.474941        -2.861326
 H         2.031749         0.373677         0.887620
 H         1.879827        -0.755585        -0.499555
 H         1.875068         0.852134        -0.869168
 H        -2.321016        -1.398615         0.788994
 H        -2.680574         1.274821         1.129479
 H        -3.247373         0.035914        -1.575411
 H        -2.906039        -2.919654        -0.915505
 H        -4.630492        -3.166795        -2.594770
 H        -4.145190        -1.547807        -3.445469
 H        -3.055875        -2.946399        -3.457187
