19
Iteration:   943charge 0 multiplicity 1
 C         1.412647         0.152213        -0.126510
 C        -0.007361        -0.065781        -0.100386
 C        -1.176010        -0.041990         0.094303
 C        -2.589597        -0.167690         0.188049
 O        -3.172114         1.178614         0.363081
 C        -3.162864        -0.962590        -0.899398
 O        -4.516384        -1.490572        -0.761322
 C        -3.299917        -2.424490        -0.829146
 C        -3.253226        -3.348540        -2.012975
 H         1.887342        -0.722362         0.352147
 H         1.765568         0.230701        -1.195601
 H         1.734748         1.073659         0.375057
 H        -2.763424        -0.704659         1.118503
 H        -3.032649         1.673209        -0.529961
 H        -2.943172        -0.455300        -1.883552
 H        -3.124309        -2.963238         0.130569
 H        -3.956017        -4.216338        -1.916090
 H        -3.582131        -2.892461        -2.980259
 H        -2.167402        -3.597912        -2.152754
