19
Iteration:  3392charge 0 multiplicity 1
 C         1.401802         0.092904        -0.425103
 C         0.033790         0.143314        -0.014810
 C        -1.107809        -0.143265         0.245536
 C        -2.492954        -0.370884         0.425223
 O        -3.140662         0.747766         0.902036
 C        -3.117812        -0.865856        -0.859945
 O        -4.410379        -1.494964        -0.671787
 C        -3.423141        -2.415989        -1.168673
 C        -3.546308        -2.789215        -2.606526
 H         1.414478         0.127067        -1.592363
 H         2.028203         0.969755        -0.178222
 H         2.103755        -0.836334        -0.089747
 H        -2.551019        -1.144658         1.158045
 H        -2.561810         1.251856         1.517884
 H        -2.850969        -0.208887        -1.708150
 H        -3.044365        -3.311901        -0.525888
 H        -4.309244        -3.623552        -2.677426
 H        -3.892838        -1.882918        -3.040054
 H        -2.601063        -3.082148        -2.963749
