19
Iteration:  4252charge 0 multiplicity 1
 C         1.448310         0.286297        -0.459352
 C         0.084285        -0.110434        -0.004246
 C        -1.087795        -0.420668         0.307188
 C        -2.518966        -0.457266         0.546567
 O        -3.084847         0.718073         1.001983
 C        -3.192661        -0.923356        -0.785209
 O        -4.467993        -1.423746        -0.644235
 C        -3.449868        -2.356603        -1.339406
 C        -3.479616        -2.587959        -2.794121
 H         2.268222         0.257041         0.230065
 H         1.575829        -0.272677        -1.451016
 H         1.229117         1.406777        -0.799116
 H        -2.853266        -1.257549         1.346939
 H        -2.484083         1.103737         1.666381
 H        -3.038013        -0.017207        -1.436867
 H        -3.502658        -3.221863        -0.644234
 H        -4.392909        -3.089229        -3.189468
 H        -3.193126        -1.572550        -3.258576
 H        -2.514169        -3.103906        -3.106654
