19
Iteration:  1191
 C         1.417580        -0.044018        -0.201032
 C         0.059585        -0.115046        -0.125164
 C        -1.163575        -0.056828         0.081595
 C        -2.640404        -0.148366         0.195690
 O        -3.178759         1.185864         0.252310
 C        -3.380785        -0.852356        -0.887544
 O        -4.470526        -1.677247        -0.563892
 C        -3.197065        -2.299107        -0.850226
 C        -3.216198        -3.144444        -2.110503
 H         1.550501         1.010447        -0.468781
 H         1.999966        -0.210258         0.828976
 H         1.864019        -0.588182        -1.086311
 H        -2.831225        -0.614744         1.196605
 H        -3.506237         1.451529         1.149050
 H        -3.286219        -0.343261        -1.865829
 H        -2.802243        -2.803710         0.008813
 H        -3.451556        -4.193545        -1.956850
 H        -3.664303        -2.651867        -2.986210
 H        -2.145923        -3.150799        -2.361261
