19
Iteration:  2960charge 0 multiplicity 1
 C         1.419286         0.262031        -0.452700
 C         0.027413        -0.100180        -0.024608
 C        -1.149265        -0.274687         0.288748
 C        -2.615794        -0.375604         0.451508
 O        -3.098184         0.938105         0.830212
 C        -3.193476        -0.921676        -0.873039
 O        -4.383159        -1.534151        -0.690470
 C        -3.318940        -2.390840        -1.102446
 C        -3.462591        -2.827266        -2.562089
 H         2.002361        -0.563808        -1.052843
 H         1.360685         1.072683        -1.166825
 H         1.971656         0.390461         0.503519
 H        -2.922333        -0.937722         1.275704
 H        -2.323480         1.533551         0.728215
 H        -3.053780        -0.063853        -1.578168
 H        -3.173375        -3.124858        -0.285545
 H        -4.344132        -3.442391        -2.429526
 H        -3.707554        -2.165710        -3.332434
 H        -2.693478        -3.512000        -2.870278
