19
Iteration:  4646
 C         1.485196        -0.012356        -0.422449
 C         0.077818        -0.183586        -0.108118
 C        -1.070802        -0.253204         0.248944
 C        -2.606665        -0.398767         0.470902
 O        -3.179762         0.676597         1.174030
 C        -3.369278        -0.732054        -0.797571
 O        -4.347220        -1.835025        -0.596028
 C        -3.138391        -2.075512        -1.369991
 C        -3.568841        -2.335935        -2.819291
 H         1.802003        -0.409104        -1.355956
 H         1.867644         1.004330        -0.407218
 H         1.994903        -0.514586         0.464865
 H        -2.687281        -1.284063         1.195322
 H        -3.004754         1.510958         0.690348
 H        -3.761296         0.090438        -1.419025
 H        -2.541409        -2.837354        -0.923534
 H        -3.873477        -3.389141        -2.864810
 H        -4.400748        -1.646241        -2.799791
 H        -2.774831        -2.000260        -3.513576
