19
Iteration:   226charge 0 multiplicity 1
 C         1.557697         0.241774        -0.177924
 C         0.115167         0.062612         0.195132
 C        -1.096578        -0.041405         0.126374
 C        -2.577859        -0.143015         0.155901
 O        -3.324601         1.187185         0.015007
 C        -3.119187        -1.013211        -1.037347
 O        -4.461318        -1.487866        -0.841583
 C        -3.468774        -2.417097        -0.766305
 C        -3.374369        -3.525483        -1.737271
 H         1.612753         0.826172        -1.076782
 H         2.089383         0.719107         0.621851
 H         2.099226        -0.648881        -0.206540
 H        -3.073223        -0.620112         0.995288
 H        -2.618980         1.784828         0.393274
 H        -3.041527        -0.619452        -2.073699
 H        -3.082781        -2.816769         0.285059
 H        -4.205569        -4.272670        -1.689588
 H        -3.305910        -3.298813        -2.821571
 H        -2.448076        -4.081690        -1.608289
