19
Iteration:  3440charge 0 multiplicity 1
 C         1.466295         0.330627        -0.368281
 C         0.174024        -0.131049        -0.053077
 C        -1.003017        -0.327571         0.130419
 C        -2.462679        -0.474037         0.456200
 O        -3.172544         0.801208         0.904232
 C        -3.202418        -0.792308        -0.850013
 O        -4.557567        -1.444105        -0.647020
 C        -3.398947        -2.271071        -1.179486
 C        -3.552865        -2.930001        -2.653296
 H         1.934001        -0.019525        -1.457415
 H         1.568799         1.440949        -0.343363
 H         2.093316         0.058649         0.406526
 H        -2.784542        -1.234828         1.188070
 H        -2.599575         1.264509         1.526631
 H        -3.259386         0.093090        -1.528426
 H        -3.071781        -2.932011        -0.307648
 H        -4.346484        -3.683167        -2.603892
 H        -3.666052        -1.982531        -3.315639
 H        -2.541749        -3.466101        -2.743150
