19
Iteration:  1942charge 0 multiplicity 1
 C         1.377048         0.043941        -0.493940
 C        -0.070141        -0.150854        -0.215824
 C        -1.124920        -0.175701         0.321563
 C        -2.638562        -0.178132         0.448336
 O        -3.235136         1.145989         0.503732
 C        -3.117703        -0.826134        -0.807937
 O        -4.476336        -1.569900        -0.694538
 C        -3.144838        -2.279231        -1.015532
 C        -3.268825        -3.165742        -2.230773
 H         1.771683        -0.930112        -0.867215
 H         1.456174         0.645935        -1.361158
 H         1.873488         0.404329         0.397064
 H        -2.955632        -0.861381         1.295397
 H        -3.414222         1.304967         1.430487
 H        -2.932743        -0.121592        -1.579764
 H        -2.711603        -2.768787        -0.229825
 H        -4.096481        -3.885875        -2.007866
 H        -3.514435        -2.416225        -2.930416
 H        -2.346232        -3.682401        -2.450681
