19
Iteration:    64
 C         1.547278         0.190618        -0.052545
 C         0.052786         0.167821         0.033511
 C        -1.191809        -0.014137         0.072894
 C        -2.629346        -0.168478         0.136504
 O        -3.221066         1.157260         0.020972
 C        -3.098431        -1.055202        -1.007642
 O        -4.490524        -1.391974        -0.804385
 C        -3.444017        -2.487121        -0.734425
 C        -3.297734        -3.545508        -1.721353
 H         2.146212         0.662836         0.792005
 H         1.851552        -0.817359        -0.584395
 H         1.846696         0.934073        -0.807161
 H        -3.076189        -0.685702         1.017268
 H        -2.517494         1.726926        -0.367081
 H        -2.935085        -0.768265        -2.028801
 H        -3.392148        -2.868697         0.255592
 H        -4.168147        -4.210070        -1.498564
 H        -3.405339        -3.095173        -2.703345
 H        -2.344358        -4.046175        -1.564926
