19
Iteration:  4472charge 0 multiplicity 1
 C         1.356887        -0.035663        -0.412939
 C         0.048396        -0.143240         0.027715
 C        -1.123930        -0.197117         0.206195
 C        -2.475952        -0.422257         0.498006
 O        -3.101513         0.777975         0.903302
 C        -3.352471        -0.811718        -0.670432
 O        -4.372365        -1.903132        -0.496713
 C        -3.229212        -2.028415        -1.415614
 C        -3.520398        -2.347781        -2.852303
 H         1.667720         0.917037        -0.881692
 H         1.881977        -0.189036         0.524077
 H         1.619973        -0.781015        -1.165665
 H        -2.499149        -1.199963         1.231223
 H        -2.769012         0.961851         1.810417
 H        -3.641065         0.029105        -1.202268
 H        -2.407222        -2.521078        -1.049045
 H        -3.897980        -3.330072        -3.015184
 H        -4.273601        -1.659725        -3.100549
 H        -2.644116        -2.292482        -3.487242
