19
Iteration:   434
 C         1.462865        -0.124211        -0.158886
 C         0.023140         0.026657         0.264666
 C        -1.153684        -0.052343         0.007085
 C        -2.691310        -0.058508         0.050991
 O        -3.305151         1.283335        -0.014971
 C        -3.457690        -0.938048        -0.929581
 O        -4.487393        -1.666575        -0.393653
 C        -3.197546        -2.385842        -0.789535
 C        -3.005548        -3.230419        -2.068697
 H         2.017815        -0.902562         0.379354
 H         1.548668        -0.418541        -1.214804
 H         1.939626         0.889254         0.027700
 H        -2.893676        -0.453927         1.058969
 H        -2.868581         1.581295        -0.819085
 H        -3.636429        -0.473703        -1.867077
 H        -2.652527        -2.831011         0.106310
 H        -3.467426        -4.171939        -1.999485
 H        -3.203088        -2.609784        -2.931065
 H        -1.988173        -3.198095        -1.997998
