19
Iteration:  4894
 C         1.535496         0.262095        -0.343943
 C         0.138175        -0.104921         0.038976
 C        -1.086921        -0.217888         0.185330
 C        -2.479978        -0.595174         0.480600
 O        -3.099561         0.431154         1.240845
 C        -3.156925        -0.844583        -0.834774
 O        -4.478533        -1.399569        -0.675595
 C        -3.505541        -2.218548        -1.343157
 C        -3.593205        -2.511189        -2.890073
 H         2.366479         0.109291         0.293810
 H         1.572928        -0.260310        -1.281402
 H         1.602249         1.296407        -0.785222
 H        -2.405011        -1.501533         1.178216
 H        -2.833976         1.257764         0.771499
 H        -3.046855        -0.159046        -1.567520
 H        -3.152205        -3.035348        -0.705963
 H        -4.618024        -2.915919        -3.097664
 H        -3.784618        -1.481593        -3.276331
 H        -2.770121        -2.955384        -3.339184
