19
Iteration:  3334charge 0 multiplicity 1
 C         1.522743         0.061043        -0.484116
 C         0.072390        -0.146906        -0.158792
 C        -1.089687        -0.083952         0.180725
 C        -2.514248        -0.359235         0.446007
 O        -3.342374         0.778806         0.921551
 C        -3.198704        -0.817376        -0.847639
 O        -4.509373        -1.606910        -0.573563
 C        -3.317574        -2.259708        -1.154343
 C        -3.356373        -2.707128        -2.541364
 H         1.669348         0.722594        -1.263564
 H         1.916017         0.549397         0.460048
 H         2.021055        -1.043066        -0.763157
 H        -2.691496        -1.216362         1.058320
 H        -2.666039         1.403478         1.203007
 H        -3.094384        -0.000529        -1.573364
 H        -2.813823        -2.876052        -0.434447
 H        -4.012693        -3.525268        -2.688051
 H        -3.841023        -1.953524        -3.135191
 H        -2.399238        -2.943862        -2.982492
