19
Iteration:  4653
 C         1.434686        -0.013825        -0.380506
 C         0.074155        -0.166761        -0.120533
 C        -1.088233        -0.210677         0.291022
 C        -2.554380        -0.419944         0.434238
 O        -3.160038         0.657536         1.188083
 C        -3.357239        -0.754141        -0.799143
 O        -4.337302        -1.790340        -0.567881
 C        -3.211439        -2.081146        -1.333819
 C        -3.528224        -2.367014        -2.894284
 H         1.482013        -0.572323        -1.345720
 H         1.862269         0.972842        -0.566192
 H         2.146100        -0.513997         0.321535
 H        -2.628168        -1.231909         1.049656
 H        -3.050158         1.495137         0.719241
 H        -3.642212         0.034571        -1.428025
 H        -2.405262        -2.695687        -0.855741
 H        -3.867720        -3.425052        -2.909451
 H        -4.418533        -1.604388        -2.870226
 H        -2.854910        -2.077687        -3.653334
