19
Iteration:  2034
 C         1.445883         0.232707        -0.465465
 C         0.071953        -0.064420        -0.141647
 C        -1.088631        -0.139814         0.205429
 C        -2.597247        -0.310106         0.373294
 O        -3.177576         0.958405         0.653020
 C        -3.189344        -0.913503        -0.884929
 O        -4.496524        -1.371904        -0.777320
 C        -3.510069        -2.331186        -0.986190
 C        -3.259251        -3.233271        -2.168424
 H         2.065218        -0.426121         0.214726
 H         1.619942        -0.166517        -1.456788
 H         1.603976         1.294685        -0.356978
 H        -2.820936        -0.828590         1.277840
 H        -2.394515         1.459258         0.990508
 H        -3.022338        -0.356245        -1.830590
 H        -3.473860        -2.949380        -0.066334
 H        -3.908673        -4.108891        -2.197668
 H        -3.289869        -2.600431        -3.109503
 H        -2.188634        -3.463637        -1.945160
