19
Iteration:  3771
 C         1.312579         0.035140        -0.628705
 C        -0.000157        -0.115035        -0.041167
 C        -1.116481        -0.294467         0.368242
 C        -2.557568        -0.480168         0.574893
 O        -3.135291         0.896011         0.945453
 C        -3.292159        -0.858601        -0.750903
 O        -4.537143        -1.594776        -0.689271
 C        -3.229550        -2.185098        -1.199481
 C        -3.247492        -2.611768        -2.633896
 H         1.938937         0.946581        -0.234652
 H         2.111716        -0.711541        -0.597665
 H         1.159296         0.179656        -1.634524
 H        -2.655427        -1.179538         1.408310
 H        -2.554618         1.652476         0.752487
 H        -3.357047         0.045432        -1.453787
 H        -2.868495        -3.101435        -0.623776
 H        -3.737838        -3.619536        -2.813223
 H        -3.587083        -1.879449        -3.397293
 H        -2.236462        -2.924591        -3.028688
