19
Iteration:  4282
 C         1.322404         0.238027        -0.474912
 C        -0.013839        -0.099387        -0.170704
 C        -1.069006        -0.428495         0.400187
 C        -2.516453        -0.566593         0.613386
 O        -3.071893         0.651864         0.959915
 C        -3.143319        -0.872448        -0.697543
 O        -4.521819        -1.440518        -0.811100
 C        -3.334261        -2.197946        -1.281168
 C        -3.418413        -2.511802        -2.669094
 H         2.103836         0.410300         0.256362
 H         1.805234        -0.633948        -1.036546
 H         1.353646         1.260799        -1.091103
 H        -2.716829        -1.363213         1.331869
 H        -2.339602         1.161352         1.355369
 H        -2.987051         0.028188        -1.415026
 H        -3.268893        -3.143830        -0.770859
 H        -4.282792        -3.258352        -2.635973
 H        -3.805785        -1.642705        -3.345633
 H        -2.397197        -2.833945        -2.938457
