19
Iteration:  3994charge 0 multiplicity 1
 C         1.404336         0.215665        -0.354714
 C         0.119772        -0.107449         0.096571
 C        -1.086776        -0.359368         0.096934
 C        -2.519875        -0.412236         0.491762
 O        -3.083852         0.867994         0.815604
 C        -3.325701        -0.950688        -0.682980
 O        -4.463424        -1.704770        -0.598875
 C        -3.312883        -2.257475        -1.295547
 C        -3.498471        -2.484597        -2.745090
 H         1.547575        -0.025397        -1.476539
 H         1.926056         1.112231        -0.056312
 H         2.031692        -0.638085         0.148511
 H        -2.640053        -1.051077         1.428973
 H        -2.390544         1.376282         1.253806
 H        -3.476026        -0.093974        -1.293323
 H        -2.862920        -3.012908        -0.715223
 H        -4.257822        -3.282642        -2.682994
 H        -3.985332        -1.710185        -3.354800
 H        -2.608517        -2.908746        -3.271014
