19
Iteration:  4193charge 0 multiplicity 1
 C         1.507202         0.256872        -0.273782
 C         0.130390         0.023940        -0.057196
 C        -1.044529        -0.358626         0.076273
 C        -2.453998        -0.526777         0.466570
 O        -3.146459         0.679589         1.077981
 C        -3.175055        -0.833511        -0.902820
 O        -4.513735        -1.466525        -0.587853
 C        -3.402424        -2.195927        -1.361496
 C        -3.639527        -2.748967        -2.745467
 H         2.162036        -0.507022         0.322646
 H         1.877081         0.229973        -1.323012
 H         1.741148         1.300620         0.161057
 H        -2.631962        -1.311820         1.255839
 H        -2.557869         1.039601         1.781206
 H        -3.117590         0.065395        -1.602991
 H        -3.017478        -2.944340        -0.689508
 H        -4.495582        -3.433801        -3.001473
 H        -3.850796        -1.854716        -3.350332
 H        -2.720492        -3.289616        -3.087828
