19
Iteration:  4461charge 0 multiplicity 1
 C         1.467030        -0.074501        -0.424688
 C         0.087739        -0.069257        -0.013836
 C        -1.127647        -0.226074         0.217482
 C        -2.548856        -0.401636         0.470011
 O        -3.165032         0.778502         0.980078
 C        -3.374692        -0.787552        -0.740105
 O        -4.338889        -1.888645        -0.479914
 C        -3.259101        -2.112489        -1.371679
 C        -3.532183        -2.320647        -2.844397
 H         1.634718         0.978174        -0.735805
 H         2.234981        -0.282204         0.323483
 H         1.632491        -0.788527        -1.243033
 H        -2.725183        -1.200079         1.140652
 H        -2.744066         1.022067         1.819865
 H        -3.716081         0.000211        -1.326310
 H        -2.555413        -2.799362        -0.997482
 H        -3.865668        -3.304332        -3.067158
 H        -3.997540        -1.665571        -3.467357
 H        -2.490703        -2.192992        -3.221434
