19
Iteration:  2138charge 0 multiplicity 1
 C         1.650406         0.274249        -0.208756
 C         0.179132         0.109361         0.037852
 C        -1.025822        -0.062352        -0.020890
 C        -2.442991        -0.291988         0.208561
 O        -3.225731         0.913633         0.550948
 C        -3.223590        -1.036296        -0.837757
 O        -4.536573        -1.536076        -0.566440
 C        -3.463033        -2.529807        -0.938814
 C        -3.594821        -2.980351        -2.337037
 H         2.148226         0.863392         0.594231
 H         2.043990        -0.775020        -0.256304
 H         1.935157         0.744141        -1.189883
 H        -2.296239        -0.640313         1.160447
 H        -3.604547         1.392787        -0.182332
 H        -3.151311        -0.534349        -1.828915
 H        -3.169477        -3.326262        -0.068124
 H        -4.091213        -3.977234        -2.285481
 H        -4.075264        -2.307847        -3.035641
 H        -2.603460        -3.157055        -2.770615
