19
Iteration:   262charge 0 multiplicity 1
 C         1.375279         0.174195        -0.003505
 C        -0.022564         0.132400        -0.263730
 C        -1.190079        -0.041717         0.145877
 C        -2.613483        -0.184989         0.233593
 O        -3.122833         1.251647        -0.020689
 C        -3.041108        -1.055305        -0.935377
 O        -4.414432        -1.530700        -0.812570
 C        -3.361089        -2.497765        -0.719023
 C        -3.372310        -3.432800        -1.825691
 H         2.013738         0.242454        -0.857505
 H         1.581023         1.085389         0.582714
 H         1.536581        -0.714565         0.432967
 H        -2.941960        -0.615650         1.192623
 H        -3.012697         1.907200         0.708378
 H        -2.720192        -0.619124        -1.853936
 H        -3.055650        -2.846254         0.278133
 H        -4.066938        -4.175129        -1.508605
 H        -3.746202        -2.893404        -2.692646
 H        -2.393912        -3.906532        -1.850661
