19
Iteration:   553charge 0 multiplicity 1
 C         1.491558        -0.178859        -0.286804
 C         0.024319         0.034033         0.210961
 C        -1.178593         0.022454         0.006286
 C        -2.738264        -0.022322         0.173757
 O        -3.391258         1.271992         0.139308
 C        -3.238142        -0.849400        -0.981076
 O        -4.495003        -1.667369        -0.703389
 C        -3.282128        -2.313627        -0.771279
 C        -2.957881        -3.378405        -1.891373
 H         2.309015         0.244208         0.326029
 H         1.636920        -1.254940        -0.207470
 H         1.477545         0.052085        -1.418144
 H        -3.160509        -0.424373         1.159304
 H        -2.766674         1.911318         0.642909
 H        -3.377040        -0.437420        -1.941295
 H        -3.049529        -2.710830         0.227963
 H        -3.511881        -4.311042        -1.701009
 H        -3.088470        -2.903557        -2.917369
 H        -1.861474        -3.474417        -1.966536
