19
Iteration:  4574
 C         1.511365         0.000684        -0.339321
 C         0.034034        -0.066741        -0.036098
 C        -1.137271        -0.373566         0.085301
 C        -2.564847        -0.362439         0.491637
 O        -2.992732         0.881439         1.035125
 C        -3.519221        -0.874903        -0.679766
 O        -4.404304        -2.070986        -0.526428
 C        -3.224264        -2.170647        -1.377544
 C        -3.530535        -2.166480        -2.883862
 H         1.936516         0.342740        -1.377870
 H         1.986980         0.737500         0.396804
 H         1.905472        -0.915561         0.010672
 H        -2.697435        -1.090559         1.293808
 H        -2.423106         1.638839         0.859112
 H        -4.198922        -0.183209        -1.256952
 H        -2.290962        -2.740727        -0.948424
 H        -3.977590        -3.161732        -3.067367
 H        -4.306058        -1.362020        -3.074635
 H        -2.519619        -1.976094        -3.358595
