19
Iteration:  3329
 C         1.509323         0.012820        -0.452731
 C         0.086726        -0.125452        -0.171631
 C        -1.118814        -0.108908         0.142835
 C        -2.574340        -0.329762         0.461219
 O        -3.298850         0.777910         0.932017
 C        -3.202417        -0.791199        -0.854447
 O        -4.486710        -1.611530        -0.555041
 C        -3.270996        -2.238847        -1.137013
 C        -3.368364        -2.735154        -2.550900
 H         1.450854         0.871917        -1.275210
 H         1.982123         0.508078         0.377951
 H         1.969224        -0.840412        -0.760836
 H        -2.815222        -1.298624         1.098695
 H        -2.659107         1.440650         1.273803
 H        -3.152143        -0.108906        -1.754119
 H        -2.912441        -2.924520        -0.321962
 H        -4.008807        -3.612076        -2.922254
 H        -3.793870        -1.906790        -3.245672
 H        -2.339180        -2.886371        -3.011927
