19
Iteration:  4359
 C         1.469564        -0.010698        -0.502111
 C         0.049742        -0.035083        -0.144223
 C        -1.122771        -0.235190         0.230013
 C        -2.543240        -0.462656         0.521642
 O        -3.135402         0.613560         1.218725
 C        -3.372501        -0.748589        -0.828237
 O        -4.575031        -1.577958        -0.756729
 C        -3.308110        -2.129254        -1.244500
 C        -3.283258        -2.539215        -2.714354
 H         1.890344         0.849702        -0.028463
 H         2.222975        -0.816693        -0.413906
 H         1.611637         0.256693        -1.611823
 H        -2.605290        -1.310482         1.169023
 H        -2.461907         1.252399         1.533269
 H        -3.427051         0.124730        -1.571332
 H        -2.765943        -2.788872        -0.624577
 H        -3.656023        -3.580400        -2.753648
 H        -3.943204        -1.761933        -3.197431
 H        -2.290718        -2.763031        -2.973009
