19
Iteration:   404
 C         1.340638        -0.000895        -0.087367
 C        -0.056795        -0.063823        -0.009446
 C        -1.215320        -0.008329         0.153177
 C        -2.656822        -0.008761         0.145001
 O        -3.246232         1.374764        -0.035281
 C        -3.264400        -0.915662        -0.884488
 O        -4.362740        -1.760410        -0.523999
 C        -3.169094        -2.445267        -0.779566
 C        -3.203303        -3.313095        -2.035475
 H         1.693875        -0.991306         0.230906
 H         1.764999        -0.014661        -1.130846
 H         1.711670         0.658747         0.658373
 H        -2.927823        -0.316201         1.167187
 H        -2.429883         1.754794        -0.394915
 H        -3.410660        -0.406008        -1.857306
 H        -2.578876        -2.869432         0.087918
 H        -3.814090        -4.290818        -1.967392
 H        -3.613092        -2.708553        -2.874541
 H        -2.067175        -3.449368        -2.284134
