19
Iteration:  1510
 C         1.449769         0.223299        -0.393195
 C         0.021987         0.164471        -0.142731
 C        -1.064972        -0.020536         0.248107
 C        -2.529933        -0.358417         0.448365
 O        -3.138778         1.002596         0.511808
 C        -3.010013        -1.056708        -0.809322
 O        -4.409626        -1.352834        -0.825955
 C        -3.491264        -2.484808        -0.888487
 C        -3.557049        -3.252154        -2.194180
 H         2.016401        -0.339852         0.285440
 H         1.916841        -0.187404        -1.332619
 H         1.783281         1.228561        -0.329929
 H        -2.610390        -0.863365         1.477502
 H        -3.588453         1.286416        -0.263944
 H        -2.579276        -0.495288        -1.691963
 H        -3.328647        -2.989011         0.020392
 H        -4.404729        -4.005073        -2.082775
 H        -3.722818        -2.615189        -3.091173
 H        -2.634480        -3.868838        -2.466999
