19
Iteration:  4926
 C         1.669858         0.187570        -0.207958
 C         0.172079         0.180908        -0.109293
 C        -0.969379        -0.231177         0.234098
 C        -2.425480        -0.545734         0.417295
 O        -3.114412         0.399017         1.280286
 C        -3.329226        -0.778546        -0.809931
 O        -4.521781        -1.559128        -0.700508
 C        -3.460259        -2.151478        -1.416888
 C        -3.700406        -2.551712        -2.888421
 H         2.268711        -0.048221         0.641061
 H         1.706710        -0.716802        -0.783101
 H         2.018777         1.046905        -0.807332
 H        -2.387365        -1.406293         0.970021
 H        -2.819320         1.290263         1.020633
 H        -3.394467        -0.047626        -1.535588
 H        -3.020265        -2.900888        -0.817696
 H        -4.746919        -2.975090        -2.897627
 H        -3.857524        -1.632157        -3.524634
 H        -3.179413        -3.264837        -3.423613
