19
Iteration:  3072
 C         1.523771        -0.021483        -0.251502
 C         0.048356         0.022930        -0.202582
 C        -1.142769        -0.126403        -0.074225
 C        -2.586128        -0.253615         0.344723
 O        -3.192825         0.903050         0.820124
 C        -3.318931        -0.899137        -0.713991
 O        -4.455370        -1.745761        -0.516481
 C        -3.316392        -2.325231        -1.111811
 C        -3.395230        -2.646816        -2.571940
 H         1.895090        -0.754066         0.661386
 H         1.938852        -0.515993        -1.185901
 H         2.017279         0.931046        -0.198150
 H        -2.610459        -0.848692         1.220568
 H        -2.495474         1.334248         1.333305
 H        -3.435109        -0.225717        -1.618729
 H        -2.754039        -3.045715        -0.542601
 H        -3.533440        -3.701484        -2.630992
 H        -4.134774        -2.162890        -3.234558
 H        -2.386472        -2.418847        -2.959484
