19
Iteration:  4929charge 0 multiplicity 1
 C         1.684145         0.175561        -0.195906
 C         0.140824         0.191017        -0.111962
 C        -0.995471        -0.227277         0.211006
 C        -2.412201        -0.523911         0.429857
 O        -3.104354         0.391755         1.276988
 C        -3.329997        -0.792362        -0.841272
 O        -4.520522        -1.554487        -0.689294
 C        -3.459236        -2.154362        -1.412194
 C        -3.721187        -2.545645        -2.897621
 H         2.278362        -0.015155         0.690074
 H         1.820063        -0.742472        -0.762550
 H         2.063836         1.028798        -0.818733
 H        -2.429565        -1.556106         1.067964
 H        -2.829992         1.313124         1.062869
 H        -3.384292         0.085339        -1.465045
 H        -2.825356        -2.900653        -0.788330
 H        -4.728790        -3.033810        -2.836392
 H        -3.784264        -1.673141        -3.474032
 H        -3.171231        -3.276248        -3.518510
