19
Iteration:  2983charge 0 multiplicity 1
 C         1.293701         0.222448        -0.371964
 C         0.019921        -0.214854        -0.096284
 C        -1.112662        -0.281757         0.239060
 C        -2.512133        -0.409362         0.434267
 O        -3.150583         0.985222         0.787689
 C        -3.144862        -0.870755        -0.881992
 O        -4.441939        -1.604170        -0.669321
 C        -3.229800        -2.286389        -1.098501
 C        -3.476203        -2.806809        -2.511109
 H         2.082236        -0.612436        -0.750289
 H         1.173556         0.844738        -1.248259
 H         1.659966         0.699666         0.551391
 H        -2.667039        -1.050179         1.248898
 H        -2.299375         1.432542         0.888106
 H        -3.206399         0.102786        -1.478207
 H        -2.570022        -2.718941        -0.363684
 H        -4.305162        -3.471608        -2.360883
 H        -3.883130        -2.087550        -3.193653
 H        -2.668218        -3.359697        -3.020534
