19
Iteration:  4846charge 0 multiplicity 1
 C         1.373983         0.369799        -0.543840
 C         0.030634        -0.158792        -0.121489
 C        -0.998575        -0.577656         0.451024
 C        -2.483052        -0.721656         0.598962
 O        -3.057141         0.529858         1.200811
 C        -3.215103        -0.864099        -0.769404
 O        -4.487492        -1.232000        -0.830439
 C        -3.434958        -2.198571        -1.310496
 C        -3.466049        -2.472884        -2.797339
 H         1.955394        -0.134130         0.301726
 H         1.764953         0.404404        -1.604533
 H         1.554256         1.394142        -0.241758
 H        -2.784018        -1.442451         1.271011
 H        -2.737441         1.297736         0.703321
 H        -3.041555         0.038269        -1.525922
 H        -3.395412        -3.110220        -0.668848
 H        -4.052817        -3.400807        -2.951005
 H        -4.013561        -1.731730        -3.478583
 H        -2.323187        -2.496753        -3.077283
