19
Iteration:  3192charge 0 multiplicity 1
 C         1.465829        -0.051182        -0.436647
 C         0.073758        -0.072537        -0.087615
 C        -1.084681        -0.217164         0.238735
 C        -2.576798        -0.284385         0.541306
 O        -3.257106         1.049074         0.649672
 C        -3.278862        -0.903316        -0.693920
 O        -4.443172        -1.815615        -0.443233
 C        -3.251147        -2.309817        -1.187994
 C        -3.374238        -2.607303        -2.737293
 H         1.848210         0.669078         0.140686
 H         2.086622        -0.955845        -0.225158
 H         1.639711         0.212773        -1.536800
 H        -2.866685        -1.019766         1.438461
 H        -2.996130         1.634532         1.379103
 H        -3.463536        -0.161427        -1.517546
 H        -2.459024        -2.838283        -0.663512
 H        -3.871566        -3.478311        -2.893477
 H        -4.058536        -1.828279        -3.067518
 H        -2.451587        -2.516696        -3.262966
