19
Iteration:  3835
 C         1.330559        -0.122132        -0.600708
 C        -0.078353        -0.069596        -0.233617
 C        -1.169246        -0.144616         0.341801
 C        -2.569116        -0.385256         0.635005
 O        -3.226966         0.827033         1.087412
 C        -3.167904        -0.815564        -0.777634
 O        -4.455809        -1.628475        -0.682638
 C        -3.242032        -2.182395        -1.219430
 C        -3.192671        -2.608810        -2.665173
 H         1.684666         0.994701        -0.784911
 H         2.057837        -0.588384         0.118625
 H         1.329124        -0.669921        -1.547254
 H        -2.653366        -1.194537         1.441021
 H        -3.102434         1.330353         0.268665
 H        -3.014080        -0.047959        -1.548508
 H        -2.829745        -2.926359        -0.502454
 H        -4.098099        -3.207246        -2.895226
 H        -3.209158        -1.671028        -3.093166
 H        -2.288853        -3.146013        -2.950939
