19
Iteration:  1054charge 0 multiplicity 1
 C         1.348257        -0.195409        -0.374725
 C        -0.028883        -0.026377        -0.141715
 C        -1.202292         0.025671         0.282009
 C        -2.699174        -0.030459         0.349161
 O        -3.377792         1.191531         0.361455
 C        -3.145423        -0.929548        -0.857504
 O        -4.415949        -1.560330        -0.817547
 C        -3.213510        -2.398278        -0.824110
 C        -3.070035        -3.181742        -2.030168
 H         2.088959        -0.043850         0.502671
 H         1.697009        -1.118646        -0.783341
 H         1.610086         0.605458        -1.136661
 H        -2.751605        -0.552131         1.348347
 H        -2.747066         1.707357        -0.101853
 H        -2.923005        -0.471131        -1.846979
 H        -2.954339        -2.787406         0.191501
 H        -3.842161        -4.055542        -1.925439
 H        -3.394479        -2.633691        -2.977022
 H        -2.072044        -3.785272        -2.095536
