19
Iteration:  2934charge 0 multiplicity 1
 C         1.452392         0.245562        -0.462398
 C         0.093727         0.083084         0.004293
 C        -1.034049        -0.282118         0.316318
 C        -2.448486        -0.332436         0.498519
 O        -3.105644         0.817957         0.811111
 C        -3.248119        -0.927699        -0.827801
 O        -4.567837        -1.502445        -0.712902
 C        -3.480298        -2.359061        -1.171850
 C        -3.423137        -2.919848        -2.557053
 H         1.580173        -0.487540        -1.175476
 H         1.647193         1.209849        -1.067897
 H         2.204977        -0.052633         0.452212
 H        -2.672514        -0.859280         1.476424
 H        -2.749051         1.660711         0.469331
 H        -2.952126        -0.198946        -1.548063
 H        -3.328601        -3.044134        -0.250022
 H        -4.180190        -3.657343        -2.852801
 H        -3.371655        -2.180399        -3.389232
 H        -2.459283        -3.417161        -2.552979
