19
Iteration:  2997charge 0 multiplicity 1
 C         1.445898         0.237777        -0.402548
 C         0.033965        -0.252337        -0.111202
 C        -1.136402        -0.338741         0.238438
 C        -2.606368        -0.343250         0.448851
 O        -3.151313         0.941723         0.764406
 C        -3.269174        -0.780286        -0.815271
 O        -4.389110        -1.612909        -0.593351
 C        -3.246019        -2.253839        -1.185113
 C        -3.447593        -2.830110        -2.513330
 H         2.163563        -0.582700        -0.463180
 H         1.558434         0.920884        -1.246295
 H         1.775668         0.864367         0.323620
 H        -2.983788        -1.080877         1.226139
 H        -2.517731         1.622373         1.057347
 H        -3.350480        -0.168673        -1.704260
 H        -2.931791        -3.013980        -0.540990
 H        -4.119911        -3.711323        -2.410937
 H        -3.894646        -2.063655        -3.238609
 H        -2.451378        -3.210932        -2.926983
