19
Iteration:  4189
 C         1.519237         0.251297        -0.235505
 C         0.087057         0.028584        -0.099359
 C        -1.057505        -0.342032         0.094710
 C        -2.446611        -0.500385         0.471557
 O        -3.132510         0.672682         1.089804
 C        -3.137087        -0.824872        -0.941395
 O        -4.498506        -1.468601        -0.586052
 C        -3.429399        -2.191657        -1.326397
 C        -3.660228        -2.778386        -2.766632
 H         2.243250        -0.483733         0.229967
 H         1.920685         0.244678        -1.213699
 H         1.729057         1.147830         0.190926
 H        -2.542446        -1.338635         1.103653
 H        -2.547381         1.043222         1.763339
 H        -3.381408        -0.059141        -1.635294
 H        -2.987521        -3.009566        -0.697653
 H        -4.455505        -3.443831        -2.955943
 H        -3.807287        -1.885208        -3.322051
 H        -2.690863        -3.083170        -3.153101
