19
Iteration:   208charge 0 multiplicity 1
 C         1.535179         0.283626        -0.165024
 C         0.145005        -0.030346         0.252552
 C        -1.036679         0.078542         0.182053
 C        -2.530844        -0.080046         0.023543
 O        -3.276636         1.085122         0.048451
 C        -3.164919        -1.019705        -1.023393
 O        -4.629066        -1.412846        -0.836608
 C        -3.460787        -2.459186        -0.763792
 C        -3.295761        -3.582700        -1.754464
 H         1.406585         1.021091        -1.018283
 H         2.257323         0.649299         0.669879
 H         1.987658        -0.618794        -0.678396
 H        -2.745527        -0.659962         0.991677
 H        -2.766592         1.954024         0.079087
 H        -2.806906        -0.819753        -1.997323
 H        -3.431816        -2.760545         0.258879
 H        -4.168409        -4.209044        -1.689267
 H        -3.253670        -3.259751        -2.802128
 H        -2.400145        -4.205536        -1.520542
