19
Iteration:  2818charge 0 multiplicity 1
 C         1.555091         0.223036        -0.382819
 C         0.108858         0.164009         0.127963
 C        -1.088814        -0.157431         0.101041
 C        -2.582406        -0.400460         0.236413
 O        -3.104565         0.738974         0.979003
 C        -3.192185        -0.829790        -0.988210
 O        -4.465255        -1.447347        -0.779067
 C        -3.471266        -2.316044        -1.087232
 C        -3.554467        -3.079297        -2.379578
 H         1.829760         0.889176        -1.310656
 H         2.142992         0.721277         0.390038
 H         1.929632        -0.770769        -0.524058
 H        -2.696172        -1.211192         1.109367
 H        -2.648937         1.583222         0.774044
 H        -3.056303        -0.214750        -1.930577
 H        -3.259208        -3.023540        -0.248697
 H        -4.361930        -3.921059        -2.458241
 H        -3.747606        -2.404391        -3.242437
 H        -2.423664        -3.446079        -2.557112
