19
Iteration:  4680
 C         1.441091        -0.057131        -0.515953
 C         0.093471        -0.023607         0.033898
 C        -1.113371        -0.103669         0.161993
 C        -2.533376        -0.462621         0.536041
 O        -3.197127         0.604802         1.268426
 C        -3.247652        -0.822185        -0.764185
 O        -4.355471        -1.667749        -0.570650
 C        -3.389120        -2.108391        -1.427261
 C        -3.457494        -2.444343        -2.909864
 H         1.460659        -0.993395        -1.116328
 H         1.854039         0.903135        -0.901385
 H         2.142936        -0.365825         0.336145
 H        -2.671580        -1.430576         1.259754
 H        -2.884083         1.439002         0.875940
 H        -3.404179         0.142012        -1.394973
 H        -2.834876        -2.853529        -0.810614
 H        -3.887731        -3.468323        -3.077560
 H        -4.102350        -1.726078        -3.398234
 H        -2.460919        -2.273226        -3.561583
