19
Iteration:  4224charge 0 multiplicity 1
 C         1.476832         0.287952        -0.415159
 C         0.172950        -0.077705         0.059227
 C        -1.033726        -0.268392         0.262183
 C        -2.444739        -0.573633         0.494753
 O        -3.055205         0.635992         0.948126
 C        -3.215927        -0.819232        -0.867444
 O        -4.617281        -1.566272        -0.750545
 C        -3.435389        -2.233024        -1.266880
 C        -3.569127        -2.583884        -2.664815
 H         2.270080        -0.108339         0.307651
 H         1.564225         0.036518        -1.434026
 H         1.477761         1.325843        -0.368138
 H        -2.644582        -1.323375         1.192232
 H        -2.572561         0.983057         1.709536
 H        -3.091805         0.065432        -1.449556
 H        -3.028615        -2.890487        -0.484567
 H        -4.539412        -2.953398        -2.960353
 H        -3.362899        -1.669731        -3.120604
 H        -2.831954        -3.267174        -3.046720
