19
Iteration:  1596charge 0 multiplicity 1
 C         1.483522         0.138365        -0.264260
 C         0.010166         0.033000        -0.302393
 C        -1.162573        -0.118101         0.012159
 C        -2.605070        -0.232651         0.296652
 O        -3.140175         1.064693         0.797332
 C        -3.152317        -0.912182        -0.930350
 O        -4.502557        -1.438708        -0.711860
 C        -3.426045        -2.363356        -0.912824
 C        -3.310933        -3.311655        -2.218600
 H         1.859007         0.641354         0.653268
 H         1.846067        -0.883253        -0.465697
 H         1.755589         0.819841        -1.109935
 H        -2.741933        -0.779144         1.192826
 H        -2.725670         1.733022         0.150837
 H        -2.826783        -0.449191        -1.850652
 H        -3.108546        -2.888956        -0.103538
 H        -3.938575        -4.199672        -1.936185
 H        -3.662552        -2.859590        -3.128922
 H        -2.328754        -3.823763        -2.212624
