19
Iteration:  3947
 C         1.457855         0.000994        -0.404483
 C         0.021138        -0.017795        -0.196450
 C        -1.066609        -0.338723         0.195475
 C        -2.518816        -0.402781         0.465253
 O        -3.237900         0.873210         1.062331
 C        -3.335226        -0.827262        -0.796159
 O        -4.505291        -1.610829        -0.593267
 C        -3.269096        -2.225088        -1.238892
 C        -3.341400        -2.638072        -2.721092
 H         1.719914         0.462076        -1.522204
 H         1.872348         0.717275         0.347513
 H         2.036482        -0.889697        -0.263758
 H        -2.550429        -1.321855         1.204728
 H        -2.442839         1.408738         1.281202
 H        -3.384948         0.075340        -1.522282
 H        -2.788920        -2.993660        -0.531975
 H        -3.516138        -3.673312        -2.963031
 H        -4.161223        -2.140890        -3.309752
 H        -2.385599        -2.349295        -3.130798
