19
Iteration:  2663
 C         1.492401         0.208803        -0.232266
 C         0.047767        -0.022047        -0.075143
 C        -1.089031        -0.210710         0.140065
 C        -2.493877        -0.337871         0.331273
 O        -3.096884         0.999980         0.731090
 C        -3.321350        -0.876459        -0.859408
 O        -4.505917        -1.647728        -0.575868
 C        -3.263236        -2.331628        -1.132874
 C        -3.542480        -2.976352        -2.490998
 H         1.865192         0.890276         0.522366
 H         2.032534        -0.720014        -0.146174
 H         1.635843         0.677445        -1.210183
 H        -2.783722        -1.065271         1.136122
 H        -2.359795         1.610023         0.519376
 H        -3.495077        -0.117437        -1.576856
 H        -2.655272        -2.821021        -0.434877
 H        -3.848294        -4.028235        -2.623045
 H        -4.212946        -2.312272        -3.047123
 H        -2.606312        -3.083073        -3.060563
