19
Iteration:   213charge 0 multiplicity 1
 C         1.530048         0.255682        -0.189696
 C         0.181997        -0.004893         0.270884
 C        -1.057205         0.045635         0.194665
 C        -2.566357        -0.107531         0.014861
 O        -3.299134         1.123005         0.043064
 C        -3.139719        -1.029495        -1.020753
 O        -4.619416        -1.437963        -0.826036
 C        -3.426940        -2.442470        -0.785046
 C        -3.322580        -3.582480        -1.783783
 H         1.617081         1.025773        -0.978080
 H         1.999499         0.760141         0.624445
 H         2.061953        -0.631822        -0.628217
 H        -2.580325        -0.541267         1.013965
 H        -2.745963         1.890221         0.186872
 H        -2.794145        -0.757566        -2.075909
 H        -3.471791        -2.716314         0.326899
 H        -4.201248        -4.243588        -1.540190
 H        -3.256108        -3.150029        -2.789408
 H        -2.442435        -4.082989        -1.329212
