19
Iteration:  4040
 C         1.480122         0.244138        -0.201378
 C         0.072589        -0.177955        -0.074412
 C        -1.097072        -0.274509         0.292764
 C        -2.486812        -0.376019         0.372744
 O        -2.979643         0.806016         0.774095
 C        -3.286954        -0.868094        -0.815912
 O        -4.433628        -1.788936        -0.445877
 C        -3.327856        -2.243125        -1.287845
 C        -3.691755        -2.513774        -2.829283
 H         1.931540        -0.069797        -1.098244
 H         1.474541         1.383437        -0.274268
 H         2.315297         0.084516         0.641928
 H        -2.773572        -1.178097         1.091424
 H        -2.722038         1.229391         1.595158
 H        -3.386731        -0.155840        -1.596882
 H        -2.937289        -3.072429        -0.774182
 H        -4.649763        -3.157801        -2.826067
 H        -3.859426        -1.636272        -3.434369
 H        -2.827803        -3.091228        -3.322616
