19
Iteration:   688charge 0 multiplicity 1
 C         1.471880         0.193874        -0.167677
 C         0.031470         0.183368         0.103311
 C        -1.138747        -0.103878         0.137041
 C        -2.573777        -0.191220         0.261181
 O        -3.138137         1.189260         0.169443
 C        -3.268253        -0.953881        -0.910964
 O        -4.487853        -1.532139        -0.913113
 C        -3.397115        -2.455817        -0.815729
 C        -3.303910        -3.479778        -1.923058
 H         1.876538         0.781096        -0.985914
 H         2.050255         0.385325         0.845863
 H         1.841457        -0.767926        -0.577541
 H        -2.986616        -0.572827         1.253615
 H        -2.381600         1.739584         0.211627
 H        -3.103345        -0.482555        -1.951916
 H        -3.219298        -2.605094         0.333053
 H        -4.026889        -4.334737        -1.862975
 H        -3.711939        -2.997463        -2.818471
 H        -2.295332        -3.843400        -2.057104
