19
Iteration:  1356charge 0 multiplicity 1
 C         1.563388         0.271261        -0.144219
 C         0.139038         0.122183        -0.178450
 C        -1.052777        -0.117112         0.067043
 C        -2.503285        -0.254202         0.243717
 O        -3.208723         0.990556         0.490251
 C        -3.198923        -0.976314        -0.954244
 O        -4.497194        -1.449678        -0.706485
 C        -3.477539        -2.427285        -0.900671
 C        -3.526118        -3.331776        -2.119901
 H         1.879881        -0.174209        -1.012294
 H         1.840309         1.313523        -0.149871
 H         2.072198        -0.263241         0.610891
 H        -2.688718        -0.657320         1.237056
 H        -2.516671         1.723168         0.296130
 H        -2.923508        -0.362012        -1.805656
 H        -3.148273        -2.814981         0.009148
 H        -4.190529        -4.196938        -1.901560
 H        -3.979611        -2.856786        -2.975964
 H        -2.489701        -3.685165        -2.296196
