19
Iteration:    84charge 0 multiplicity 1
 C         1.512300         0.259089        -0.119147
 C         0.139836         0.059099         0.160836
 C        -1.045043        -0.045986         0.135274
 C        -2.439412        -0.229245         0.069905
 O        -3.340221         1.107913         0.017365
 C        -3.178882        -1.029101        -1.051213
 O        -4.570788        -1.487893        -0.874355
 C        -3.454735        -2.345699        -0.686902
 C        -3.334590        -3.450424        -1.665708
 H         1.950684         1.003083         0.632060
 H         1.947928        -0.809835        -0.318698
 H         1.770772         0.767438        -1.020772
 H        -2.835018        -0.734324         1.039189
 H        -2.770416         1.782258        -0.496670
 H        -2.973744        -0.781496        -2.100466
 H        -3.308735        -2.395545         0.497449
 H        -4.136217        -4.264776        -1.701474
 H        -3.219458        -3.004776        -2.680234
 H        -2.361734        -3.969762        -1.555354
