19
Iteration:  2668charge 0 multiplicity 1
 C         1.507331         0.202706        -0.238685
 C         0.057437        -0.019701        -0.046266
 C        -1.142033        -0.188860         0.201745
 C        -2.471840        -0.332750         0.307332
 O        -3.052785         0.994860         0.731405
 C        -3.312446        -0.852451        -0.853573
 O        -4.522860        -1.682736        -0.578680
 C        -3.318770        -2.311404        -1.181694
 C        -3.534032        -2.994191        -2.468869
 H         1.904231         1.135571         0.436435
 H         2.118315        -0.732403        -0.207065
 H         1.607240         0.708912        -1.215583
 H        -2.659814        -1.064416         1.086933
 H        -2.361816         1.624693         0.461321
 H        -3.591103        -0.155811        -1.718097
 H        -2.754247        -3.073080        -0.501938
 H        -3.851786        -4.045968        -2.556984
 H        -4.142757        -2.271416        -3.031119
 H        -2.596342        -3.049900        -3.104012
