19
Iteration:  4793
 C         1.287991         0.291054        -0.543403
 C         0.046388        -0.136825         0.011018
 C        -1.057221        -0.521504         0.320163
 C        -2.513583        -0.586328         0.564915
 O        -2.941281         0.537449         1.346345
 C        -3.206104        -0.794492        -0.825228
 O        -4.638484        -1.322791        -0.932039
 C        -3.394398        -2.175843        -1.217441
 C        -3.340568        -2.544267        -2.824216
 H         2.126241        -0.489487        -0.677208
 H         0.989138         0.444523        -1.648282
 H         1.642768         1.258191        -0.235871
 H        -2.942191        -1.461106         1.193972
 H        -2.315150         1.270776         1.257455
 H        -3.079161        -0.066104        -1.641943
 H        -3.326042        -3.015310        -0.539728
 H        -4.031851        -3.371425        -3.057874
 H        -3.489029        -1.496264        -3.198558
 H        -2.276629        -2.789466        -3.163708
