19
Iteration:   776charge 0 multiplicity 1
 C         1.600980         0.367163         0.071072
 C         0.125582         0.190982         0.099232
 C        -1.047172        -0.160503        -0.001181
 C        -2.513073        -0.165479         0.096052
 O        -3.031828         1.106137         0.190948
 C        -3.298177        -1.047639        -0.973049
 O        -4.617364        -1.536563        -0.691176
 C        -3.433681        -2.508322        -0.821387
 C        -3.484608        -3.414565        -2.057032
 H         1.772459         0.295191        -0.979860
 H         1.872272         1.447429         0.360626
 H         2.063980        -0.297745         0.754163
 H        -2.728905        -0.607926         1.055387
 H        -3.236264         1.640582        -0.556245
 H        -3.058894        -0.589949        -1.966380
 H        -3.023429        -3.058341         0.095349
 H        -4.346552        -4.109781        -1.950327
 H        -3.835947        -2.828565        -2.889373
 H        -2.596025        -4.021075        -2.175268
