19
Iteration:  2771
 C         1.538684         0.315475        -0.227663
 C         0.146894         0.005098        -0.206458
 C        -1.030492        -0.237986         0.116438
 C        -2.511898        -0.418943         0.493053
 O        -3.213245         0.900652         0.763325
 C        -3.114121        -0.961345        -0.816834
 O        -4.489724        -1.483861        -0.660851
 C        -3.557191        -2.371473        -1.102486
 C        -3.500438        -2.958867        -2.512796
 H         1.596647         1.243259        -0.672976
 H         2.156929         0.290571         0.727697
 H         2.021454        -0.367993        -1.045200
 H        -2.850630        -1.070656         1.342723
 H        -2.651200         1.620723         0.431742
 H        -3.069014        -0.288831        -1.641906
 H        -3.184294        -3.204347        -0.376639
 H        -4.328934        -3.649843        -2.604037
 H        -3.647823        -2.182729        -3.279690
 H        -2.564048        -3.409739        -2.711414
