19
Iteration:  4328
 C         1.356335         0.094149        -0.559720
 C         0.066368        -0.161820         0.043184
 C        -1.171244        -0.279101         0.132363
 C        -2.510976        -0.491080         0.581502
 O        -3.095481         0.659452         1.186917
 C        -3.254060        -0.786803        -0.802218
 O        -4.500497        -1.464666        -0.732790
 C        -3.405693        -2.179800        -1.286003
 C        -3.295814        -2.623296        -2.762420
 H         1.873339         0.821562         0.044950
 H         2.072758        -0.738384        -0.726582
 H         1.057681         0.840674        -1.424538
 H        -2.631859        -1.298714         1.312298
 H        -2.418605         1.267736         1.497037
 H        -3.190871         0.075990        -1.484857
 H        -2.924549        -2.766165        -0.552408
 H        -3.831253        -3.583296        -2.867255
 H        -3.813000        -1.947295        -3.514770
 H        -2.190265        -2.554414        -2.969930
