19
Iteration:  4982
 C         1.587981         0.215940        -0.036617
 C         0.177681        -0.129576        -0.073618
 C        -1.033761        -0.102196        -0.091346
 C        -2.404183        -0.545324         0.264211
 O        -3.079042         0.427987         1.265250
 C        -3.369603        -0.813696        -0.879262
 O        -4.423099        -1.632397        -0.557318
 C        -3.407801        -2.138404        -1.429331
 C        -3.806100        -2.409793        -2.780128
 H         1.664449         0.643410         0.943189
 H         2.285032        -0.599437        -0.129896
 H         1.953971         0.929957        -0.859958
 H        -2.366243        -1.431076         0.726665
 H        -2.580374         1.222888         0.977523
 H        -3.371955        -0.095285        -1.616466
 H        -2.885190        -2.925970        -0.897899
 H        -4.356685        -3.424919        -2.879793
 H        -4.426211        -1.590548        -3.152396
 H        -2.917925        -2.288793        -3.383726
