19
Iteration:   954
 C         1.440045         0.102515        -0.173757
 C         0.021034        -0.108682        -0.083046
 C        -1.188935        -0.122108         0.052486
 C        -2.651962        -0.107655         0.273205
 O        -3.275250         1.116217         0.320967
 C        -3.137970        -0.939161        -0.950061
 O        -4.470737        -1.452932        -0.718635
 C        -3.312042        -2.367333        -0.829150
 C        -3.198957        -3.316419        -2.013865
 H         2.187699        -0.500947         0.381561
 H         1.715607         0.208313        -1.251892
 H         1.466957         1.111642         0.243624
 H        -2.915041        -0.608847         1.211631
 H        -2.651679         1.689689        -0.145496
 H        -3.010040        -0.554130        -2.001788
 H        -3.314281        -2.793807         0.180856
 H        -3.746242        -4.278305        -1.820599
 H        -3.451188        -2.763069        -2.954301
 H        -2.117193        -3.692556        -2.080349
