19
Iteration:  2279charge 0 multiplicity 1
 C         1.581963         0.278578        -0.228963
 C         0.077355        -0.052345        -0.301605
 C        -1.038022        -0.238986         0.137722
 C        -2.576899        -0.331859         0.357864
 O        -3.214217         1.029503         0.477737
 C        -3.290235        -0.927717        -0.820834
 O        -4.479206        -1.626324        -0.508925
 C        -3.336196        -2.419444        -0.984647
 C        -3.475924        -2.924437        -2.396197
 H         1.789676         1.072588        -0.865948
 H         1.889290         0.434008         0.810339
 H         2.054311        -0.659675        -0.581657
 H        -2.906183        -0.865662         1.355332
 H        -2.650888         1.457855         1.114262
 H        -3.341142        -0.145271        -1.637872
 H        -3.026678        -3.037110        -0.164612
 H        -4.046029        -3.860648        -2.327531
 H        -3.675905        -2.206693        -3.184927
 H        -2.408621        -3.133886        -2.464738
