19
Iteration:   715charge 0 multiplicity 1
 C         1.434887         0.282518        -0.016959
 C         0.001213         0.001776        -0.156114
 C        -1.168039        -0.155489         0.135113
 C        -2.582455        -0.183960         0.190728
 O        -3.160715         1.178437         0.198709
 C        -3.070124        -1.034652        -0.994611
 O        -4.451445        -1.485351        -0.770548
 C        -3.434628        -2.455339        -0.788691
 C        -3.386466        -3.368967        -1.923993
 H         1.902232         0.907897        -0.832825
 H         1.507776         0.854749         0.852571
 H         2.161540        -0.554949        -0.016768
 H        -3.140165        -0.601357         1.056413
 H        -2.376499         1.665852         0.093136
 H        -2.880655        -0.683876        -2.007559
 H        -3.116148        -2.674039         0.159360
 H        -3.962232        -4.268049        -1.750464
 H        -3.617698        -2.928864        -2.915470
 H        -2.330768        -3.713824        -2.132146
