19
Iteration:   921
 C         1.577048         0.129744        -0.083035
 C         0.077751         0.170379        -0.088473
 C        -1.141031        -0.053502         0.100853
 C        -2.672866        -0.114700         0.284466
 O        -3.062265         1.243322         0.346740
 C        -3.206503        -0.981819        -0.990099
 O        -4.531196        -1.645970        -0.787075
 C        -3.370775        -2.461153        -0.836024
 C        -3.370230        -3.393134        -2.044597
 H         1.987117        -0.833504         0.247240
 H         1.948607         0.515656        -1.055865
 H         1.846325         0.921693         0.607069
 H        -2.890379        -0.670338         1.186551
 H        -3.760996         1.326685        -0.299164
 H        -3.070117        -0.540748        -2.021392
 H        -3.252896        -2.954294         0.144964
 H        -4.117398        -4.207982        -1.972236
 H        -3.698865        -2.862074        -2.961789
 H        -2.320620        -3.673453        -2.236566
