19
Iteration:  3410charge 0 multiplicity 1
 C         1.465226         0.202944        -0.455660
 C         0.103838         0.082518         0.002698
 C        -1.045568        -0.172050         0.263581
 C        -2.487043        -0.497509         0.456935
 O        -3.131731         0.795133         0.891130
 C        -3.200128        -0.921710        -0.882696
 O        -4.498968        -1.495677        -0.729226
 C        -3.340314        -2.292521        -1.138254
 C        -3.589935        -2.817853        -2.590443
 H         1.549003        -0.077883        -1.410432
 H         1.897450         1.201246        -0.247237
 H         2.006014        -0.592284         0.132587
 H        -2.832600        -1.376758         1.108541
 H        -2.452792         1.093010         1.534365
 H        -3.151835        -0.153968        -1.630569
 H        -3.085773        -2.912121        -0.342597
 H        -4.331981        -3.586101        -2.595368
 H        -3.833936        -1.984282        -3.252726
 H        -2.652792        -3.292490        -3.031767
