19
Iteration:   741
 C         1.457511         0.385015         0.066694
 C         0.122717        -0.148826        -0.102059
 C        -1.096741        -0.175763         0.014280
 C        -2.537330        -0.126853         0.147469
 O        -3.202747         1.095835         0.182515
 C        -3.172149        -1.036129        -0.942624
 O        -4.520636        -1.402256        -0.676547
 C        -3.377656        -2.448793        -0.822466
 C        -3.400648        -3.389392        -1.989249
 H         1.789287         0.780951        -0.880498
 H         1.386126         1.297942         0.689907
 H         2.302942        -0.241181         0.373125
 H        -2.951277        -0.576233         1.018402
 H        -2.631916         1.629208        -0.337094
 H        -2.985679        -0.748045        -1.994937
 H        -3.266396        -2.808693         0.245966
 H        -4.149149        -4.244614        -1.768770
 H        -3.541752        -2.887806        -2.976244
 H        -2.438227        -3.888506        -2.223699
