19
Iteration:   910charge 0 multiplicity 1
 C         1.557937         0.185918        -0.037660
 C         0.081099         0.200531        -0.034318
 C        -1.100981        -0.098814         0.099228
 C        -2.536882        -0.143214         0.157814
 O        -3.103910         1.267148         0.287619
 C        -3.217167        -0.986531        -0.874790
 O        -4.594997        -1.626732        -0.778704
 C        -3.362626        -2.485629        -0.872326
 C        -3.411244        -3.394537        -2.061239
 H         1.952540        -0.835543        -0.029486
 H         1.972569         0.451975        -1.018029
 H         2.114042         0.750687         0.700090
 H        -2.811153        -0.650686         1.062938
 H        -4.036248         1.320108         0.187969
 H        -3.044022        -0.444329        -1.847694
 H        -3.017691        -3.033642         0.026367
 H        -4.029380        -4.283426        -1.876488
 H        -3.693866        -2.806317        -2.944650
 H        -2.453334        -3.915189        -2.217241
