19
Iteration:  4786
 C         1.299596         0.307349        -0.600987
 C         0.053227        -0.172661        -0.008805
 C        -1.071728        -0.512670         0.349058
 C        -2.496656        -0.598974         0.533514
 O        -2.989570         0.547793         1.348410
 C        -3.201913        -0.751207        -0.813964
 O        -4.618210        -1.381691        -0.943333
 C        -3.436550        -2.157037        -1.215067
 C        -3.303704        -2.486234        -2.784773
 H         1.955181        -0.512553        -0.571860
 H         1.308755         0.461737        -1.642331
 H         1.762470         1.141885         0.013309
 H        -2.700741        -1.554040         1.165520
 H        -2.282418         1.225783         1.272813
 H        -3.109138         0.032361        -1.492766
 H        -3.387344        -2.988426        -0.499017
 H        -4.039043        -3.292476        -2.948773
 H        -3.562912        -1.644250        -3.461188
 H        -2.437546        -2.968061        -3.081253
