19
Iteration:  3179
 C         1.487288        -0.049659        -0.412301
 C         0.047022        -0.028070        -0.051350
 C        -1.125047        -0.144663         0.299458
 C        -2.565212        -0.215714         0.503529
 O        -3.189657         1.017026         0.661646
 C        -3.368569        -0.945591        -0.719781
 O        -4.394433        -1.815205        -0.425764
 C        -3.202724        -2.278560        -1.294566
 C        -3.429293        -2.644863        -2.720170
 H         2.232715         0.492100         0.079256
 H         1.696844        -1.115756        -0.333187
 H         1.558762         0.306745        -1.572439
 H        -2.750740        -0.817987         1.477687
 H        -2.895128         1.276475         1.557836
 H        -3.627838        -0.080268        -1.432767
 H        -2.830465        -3.167752        -0.719831
 H        -3.844943        -3.626474        -2.806944
 H        -3.977178        -1.931991        -3.354526
 H        -2.445035        -2.766483        -3.192785
