19
Iteration:  2370
 C         1.438940        -0.028916        -0.547696
 C         0.046206         0.053070        -0.013091
 C        -1.156095        -0.044045         0.195858
 C        -2.648490        -0.274275         0.458095
 O        -3.277729         0.943521         0.735644
 C        -3.190992        -0.785277        -0.879966
 O        -4.495206        -1.605615        -0.684712
 C        -3.180407        -2.184243        -1.036465
 C        -3.307631        -3.128444        -2.354174
 H         1.542234        -0.394058        -1.602121
 H         1.958649         0.851442        -0.425192
 H         1.955985        -0.711859         0.042959
 H        -2.811660        -1.177599         1.188301
 H        -2.643182         1.709631         0.686709
 H        -3.325868        -0.066113        -1.681901
 H        -2.704219        -2.808449        -0.165873
 H        -3.848027        -3.974510        -2.045922
 H        -3.551076        -2.605600        -3.270339
 H        -2.341763        -3.401418        -2.683172
