19
Iteration:  2791charge 0 multiplicity 1
 C         1.563198         0.302718        -0.336652
 C         0.110302         0.065620         0.002737
 C        -1.088601        -0.126061         0.126393
 C        -2.494356        -0.395896         0.369542
 O        -3.104620         0.779321         0.822158
 C        -3.257327        -0.957444        -0.826750
 O        -4.594443        -1.411253        -0.736960
 C        -3.385048        -2.393663        -1.123447
 C        -3.525767        -3.020788        -2.458806
 H         1.764287         1.133725        -0.968917
 H         1.993846         0.342236         0.730000
 H         2.056231        -0.669401        -0.792853
 H        -2.505154        -0.985408         1.242232
 H        -2.568059         1.561842         0.619237
 H        -2.961802        -0.378990        -1.685552
 H        -3.235511        -3.070833        -0.193315
 H        -4.308163        -3.694053        -2.577022
 H        -3.584412        -2.265548        -3.264833
 H        -2.649849        -3.441498        -2.780743
