19
Iteration:  2876
 C         1.500981         0.254004        -0.331887
 C         0.074325        -0.074619        -0.264867
 C        -1.078242        -0.195910         0.148415
 C        -2.477145        -0.418467         0.413226
 O        -3.266654         0.776934         1.008865
 C        -3.113598        -0.906672        -0.910040
 O        -4.478756        -1.315509        -0.804578
 C        -3.400557        -2.338942        -1.046181
 C        -3.464616        -2.992304        -2.422611
 H         1.912676         0.200048        -1.409260
 H         1.676287         1.255716         0.110097
 H         2.176610        -0.352049         0.277929
 H        -2.561117        -1.094275         1.372362
 H        -3.370089         1.520874         0.388324
 H        -2.733841        -0.363678        -1.813577
 H        -3.354780        -2.976184        -0.171755
 H        -4.133070        -3.897648        -2.419648
 H        -3.888630        -2.144777        -3.108284
 H        -2.401951        -3.341441        -2.798800
