19
Iteration:  3659charge 0 multiplicity 1
 C         1.499984         0.140809        -0.256277
 C         0.092195        -0.039508        -0.087674
 C        -1.129395        -0.091241         0.005273
 C        -2.414880        -0.429557         0.372320
 O        -3.096408         0.756301         0.984514
 C        -3.293562        -0.847158        -0.883131
 O        -4.521792        -1.629764        -0.520590
 C        -3.390993        -2.280954        -1.219058
 C        -3.508234        -2.725963        -2.622847
 H         2.128101        -0.069966         0.663328
 H         1.807872        -0.592925        -1.005369
 H         1.727043         1.081490        -0.568215
 H        -2.483423        -1.213287         1.130923
 H        -3.000450         1.501532         0.376754
 H        -3.238980        -0.118500        -1.628993
 H        -2.916802        -2.930879        -0.553835
 H        -4.141739        -3.546693        -2.838491
 H        -3.916182        -1.837433        -3.005636
 H        -2.445802        -2.909496        -2.958267
