19
Iteration:   540
 C         1.430714        -0.199600        -0.245848
 C         0.008757         0.008450         0.096368
 C        -1.190775        -0.044709         0.098283
 C        -2.695493        -0.026647         0.147070
 O        -3.414269         1.307470         0.143299
 C        -3.311798        -0.869674        -0.979790
 O        -4.486864        -1.675936        -0.704434
 C        -3.184570        -2.332024        -0.816858
 C        -2.978655        -3.267359        -1.852097
 H         2.108065         0.302957         0.485736
 H         1.622508        -1.240468        -0.346350
 H         1.769824         0.224134        -1.235783
 H        -2.804766        -0.647570         1.082622
 H        -2.759581         1.966976         0.343644
 H        -3.211024        -0.380104        -1.965059
 H        -2.660760        -2.598875         0.058136
 H        -3.390227        -4.258977        -1.502222
 H        -3.473492        -3.047755        -2.861351
 H        -1.847893        -3.515032        -1.742765
