19
Iteration:    62charge 0 multiplicity 1
 C         1.549482         0.186560        -0.046683
 C         0.036796         0.171006         0.020299
 C        -1.187880        -0.014108         0.063224
 C        -2.631492        -0.177588         0.149695
 O        -3.224781         1.195720         0.023215
 C        -3.090842        -1.083644        -0.998260
 O        -4.480765        -1.388229        -0.798419
 C        -3.437134        -2.485463        -0.752427
 C        -3.301535        -3.553997        -1.723872
 H         2.132908         0.623054         0.799687
 H         1.837210        -0.778357        -0.591012
 H         1.845537         0.926823        -0.787108
 H        -3.116723        -0.697182         1.049084
 H        -2.513856         1.697173        -0.345168
 H        -2.919849        -0.765979        -2.043078
 H        -3.425560        -2.866248         0.327685
 H        -4.170147        -4.245036        -1.510090
 H        -3.411256        -3.117622        -2.731781
 H        -2.332621        -4.075236        -1.609574
