19
Iteration:  3075
 C         1.534404        -0.020483        -0.242561
 C         0.029689         0.001435        -0.230339
 C        -1.161308        -0.107963        -0.065314
 C        -2.544968        -0.243928         0.379463
 O        -3.204142         0.898269         0.816168
 C        -3.300640        -0.884504        -0.749730
 O        -4.455905        -1.750923        -0.505183
 C        -3.320017        -2.317988        -1.099907
 C        -3.398104        -2.652959        -2.579292
 H         1.998623        -0.728945         0.659247
 H         1.940814        -0.614859        -1.137448
 H         1.966852         0.942401        -0.171802
 H        -2.727307        -0.990896         1.235351
 H        -2.534024         1.416088         1.318671
 H        -3.506902        -0.203909        -1.539043
 H        -2.635297        -2.952688        -0.561922
 H        -3.608104        -3.811041        -2.714632
 H        -4.146160        -2.180657        -3.312801
 H        -2.373265        -2.404166        -2.971620
