19
Iteration:  2184charge 0 multiplicity 1
 C         1.458572         0.279682        -0.062063
 C         0.118658         0.048300        -0.271255
 C        -1.023983        -0.128475         0.090222
 C        -2.486944        -0.277552         0.294455
 O        -3.124413         0.956643         0.528470
 C        -3.154996        -0.888048        -0.833310
 O        -4.437041        -1.567307        -0.463171
 C        -3.383481        -2.419808        -1.070995
 C        -3.660946        -3.168301        -2.413515
 H         1.473420         1.376035         0.412042
 H         1.944934        -0.518878         0.472018
 H         1.870346         0.373543        -1.082795
 H        -2.747346        -0.891381         1.142377
 H        -2.463382         1.580556         0.183558
 H        -3.416983        -0.323839        -1.762086
 H        -2.935436        -3.182319        -0.352988
 H        -4.105917        -4.118811        -2.103742
 H        -4.379893        -2.511801        -2.987036
 H        -2.761081        -3.246752        -3.045175
