19
Iteration:  2372
 C         1.430394        -0.026001        -0.544696
 C         0.046112         0.034998        -0.030418
 C        -1.189944        -0.064959         0.185803
 C        -2.632316        -0.272367         0.460502
 O        -3.284472         0.959560         0.748688
 C        -3.178676        -0.775949        -0.876245
 O        -4.488154        -1.599455        -0.682612
 C        -3.180738        -2.209995        -1.053432
 C        -3.298980        -3.120580        -2.351420
 H         1.498093        -0.410842        -1.589112
 H         1.961407         0.917243        -0.441699
 H         1.923850        -0.710658         0.120732
 H        -2.761864        -1.138054         1.120025
 H        -2.660809         1.724086         0.694621
 H        -3.262875        -0.042930        -1.666641
 H        -2.639257        -2.781316        -0.155572
 H        -3.878593        -3.953972        -2.051420
 H        -3.610158        -2.606561        -3.239137
 H        -2.275937        -3.418827        -2.601870
