19
Iteration:  4209
 C         1.532026         0.307633        -0.328607
 C         0.137997        -0.039173         0.021808
 C        -1.063449        -0.342019         0.148915
 C        -2.478235        -0.536636         0.454529
 O        -3.107611         0.627158         0.967701
 C        -3.286024        -0.840422        -0.727658
 O        -4.493489        -1.468876        -0.726434
 C        -3.396643        -2.201488        -1.256309
 C        -3.605093        -2.633687        -2.737735
 H         2.301324        -0.283646         0.117220
 H         1.660799         0.024754        -1.396222
 H         1.854810         1.359883        -0.176222
 H        -2.492281        -1.461858         1.106304
 H        -2.545111         0.938838         1.710947
 H        -3.365556        -0.064681        -1.528875
 H        -3.011268        -3.092103        -0.690757
 H        -4.556291        -3.129054        -2.555321
 H        -3.609659        -1.927331        -3.613119
 H        -2.815358        -3.359245        -3.001141
