19
Iteration:     2charge 0 multiplicity 1
 C         1.483207         0.138399        -0.058209
 C         0.033578         0.055287         0.003154
 C        -1.178558        -0.002488         0.084323
 C        -2.629977        -0.065983         0.113884
 O        -3.223241         1.240616        -0.025636
 C        -3.153104        -1.013357        -0.944967
 O        -4.470791        -1.532427        -0.767432
 C        -3.361458        -2.451936        -0.686424
 C        -3.282609        -3.494430        -1.757278
 H         1.900357        -0.494606         0.685579
 H         1.870712        -0.205082        -0.977259
 H         1.834620         1.165646         0.098955
 H        -3.010110        -0.480218         1.055600
 H        -2.746205         1.688323        -0.760252
 H        -2.909608        -0.723148        -1.985064
 H        -3.108690        -2.803013         0.345661
 H        -3.994754        -4.292646        -1.585211
 H        -3.494537        -3.079013        -2.751445
 H        -2.285327        -3.961012        -1.790860
