19
Iteration:   257
 C         1.371553         0.175900        -0.050357
 C        -0.028177         0.159093        -0.185205
 C        -1.174761        -0.057860         0.126501
 C        -2.598135        -0.185305         0.212651
 O        -3.141496         1.231208        -0.018193
 C        -3.037791        -1.032843        -0.893966
 O        -4.428832        -1.495066        -0.840340
 C        -3.316001        -2.524719        -0.732234
 C        -3.379275        -3.419887        -1.802582
 H         2.037906         0.305272        -0.947869
 H         1.391924         1.025312         0.649835
 H         1.696132        -0.892868         0.458147
 H        -3.028413        -0.580655         1.150011
 H        -2.935625         1.821804         0.702310
 H        -2.810378        -0.665106        -1.943654
 H        -3.007683        -2.750599         0.339684
 H        -4.145181        -4.225913        -1.488726
 H        -3.772138        -3.013779        -2.757846
 H        -2.455867        -4.042894        -1.837624
