19
Iteration:  4925charge 0 multiplicity 1
 C         1.661233         0.192735        -0.214820
 C         0.180274         0.175789        -0.105021
 C        -0.958185        -0.230230         0.239135
 C        -2.430372        -0.551384         0.412538
 O        -3.117384         0.401885         1.281484
 C        -3.326399        -0.778119        -0.798429
 O        -4.523144        -1.560135        -0.703543
 C        -3.458936        -2.151188        -1.419636
 C        -3.698909        -2.550210        -2.883175
 H         2.269465        -0.052493         0.652674
 H         1.685140        -0.724156        -0.812071
 H         2.005128         1.044193        -0.795160
 H        -2.379102        -1.382899         0.951764
 H        -2.816378         1.278777         1.006745
 H        -3.402177        -0.045619        -1.590794
 H        -3.078468        -2.915649        -0.823468
 H        -4.742197        -2.949753        -2.916796
 H        -3.877509        -1.620417        -3.540968
 H        -3.143423        -3.287240        -3.399920
