19
Iteration:   717charge 0 multiplicity 1
 C         1.434487         0.300881        -0.016269
 C        -0.004239        -0.024933        -0.161924
 C        -1.168382        -0.158035         0.134846
 C        -2.560523        -0.195820         0.182193
 O        -3.172660         1.183835         0.199798
 C        -3.085037        -1.024051        -1.010860
 O        -4.430357        -1.477982        -0.760140
 C        -3.453886        -2.467007        -0.773524
 C        -3.388840        -3.370545        -1.927304
 H         1.901997         0.927231        -0.789936
 H         1.516656         0.881369         0.849003
 H         2.126240        -0.577920         0.056567
 H        -3.102721        -0.579620         1.000186
 H        -2.367090         1.710604         0.068877
 H        -2.847504        -0.597556        -1.961655
 H        -3.097448        -2.709856         0.202875
 H        -3.972737        -4.343374        -1.768285
 H        -3.565500        -2.886633        -2.934487
 H        -2.341693        -3.720728        -2.181162
