19
Iteration:  1756charge 0 multiplicity 1
 C         1.426352        -0.065676        -0.303543
 C        -0.008789         0.045084        -0.075608
 C        -1.248644        -0.097806         0.157138
 C        -2.705253        -0.170978         0.263514
 O        -3.096101         1.193519         0.431206
 C        -3.422801        -0.870420        -0.846045
 O        -4.324969        -1.857158        -0.301353
 C        -3.142626        -2.313742        -1.066146
 C        -3.374874        -2.964924        -2.403184
 H         1.965695         0.509518        -1.077931
 H         2.016949         0.112271         0.566600
 H         1.601253        -1.126318        -0.464047
 H        -2.801424        -0.592703         1.222146
 H        -2.393681         1.780206         0.090403
 H        -3.558873        -0.183319        -1.643325
 H        -2.344080        -2.868013        -0.452856
 H        -3.777587        -3.994056        -2.334480
 H        -3.947709        -2.425073        -3.125244
 H        -2.416898        -3.214421        -2.841426
