19
Iteration:  4949charge 0 multiplicity 1
 C         1.538653         0.144227        -0.138978
 C         0.129010         0.070118        -0.080616
 C        -1.047680        -0.111478         0.013968
 C        -2.456064        -0.568663         0.366576
 O        -3.064035         0.401564         1.309583
 C        -3.244066        -0.791003        -0.875813
 O        -4.409761        -1.563157        -0.609103
 C        -3.382908        -2.133879        -1.461228
 C        -3.799435        -2.492968        -2.817203
 H         1.868811         0.258774         0.881008
 H         1.943844        -0.804993        -0.390710
 H         1.860654         1.041917        -0.730035
 H        -2.355646        -1.456934         0.896066
 H        -2.644522         1.228388         1.030815
 H        -3.360146        -0.072840        -1.588652
 H        -2.971212        -2.990884        -0.963144
 H        -4.690444        -3.177189        -2.917767
 H        -3.988572        -1.655307        -3.478928
 H        -3.033947        -3.079906        -3.283914
