19
Iteration:  4115
 C         1.607207         0.191745        -0.070674
 C         0.187551         0.037779        -0.029091
 C        -1.019432        -0.130851         0.014045
 C        -2.451633        -0.462857         0.225914
 O        -3.101751         0.630997         1.013093
 C        -3.330224        -0.863486        -0.936734
 O        -4.529872        -1.534367        -0.408480
 C        -3.492756        -2.305192        -1.277356
 C        -3.658054        -2.693011        -2.831031
 H         2.218641        -0.687229        -0.443277
 H         1.875897         0.835471        -0.873246
 H         2.070156         0.589715         0.781457
 H        -2.472082        -1.243001         1.057384
 H        -2.388543         1.183397         1.395447
 H        -3.457829        -0.061631        -1.613226
 H        -2.799262        -2.970297        -0.802248
 H        -3.946938        -3.747078        -2.880826
 H        -4.442340        -2.149704        -3.257293
 H        -2.776583        -2.479473        -3.440710
