19
Iteration:  4969charge 0 multiplicity 1
 C         1.530000         0.170991        -0.047276
 C         0.117946        -0.106889        -0.076783
 C        -1.113762        -0.063883        -0.088593
 C        -2.433174        -0.490202         0.352043
 O        -3.009727         0.362279         1.227441
 C        -3.229839        -0.775280        -0.914661
 O        -4.441024        -1.568793        -0.553546
 C        -3.344856        -2.218625        -1.371259
 C        -3.808311        -2.444523        -2.853441
 H         1.839505         0.623765         0.903180
 H         2.203191        -0.701544        -0.246173
 H         1.705704         1.006677        -0.768411
 H        -2.314354        -1.380972         0.875048
 H        -2.703823         1.274853         1.204847
 H        -3.574144         0.115733        -1.481431
 H        -2.705288        -2.883808        -0.915207
 H        -4.587715        -3.284943        -2.987618
 H        -4.379900        -1.506329        -3.177099
 H        -2.987704        -2.725917        -3.450851
