19
Iteration:  4880
 C         1.389040         0.302292        -0.443126
 C         0.130864        -0.173289         0.036313
 C        -1.067033        -0.318288         0.184815
 C        -2.419871        -0.608551         0.492944
 O        -3.123430         0.463329         1.225347
 C        -3.133215        -0.906087        -0.810718
 O        -4.451476        -1.317871        -0.721403
 C        -3.429067        -2.263754        -1.330493
 C        -3.600848        -2.401198        -2.787122
 H         2.091264        -0.051035         0.372030
 H         1.835164        -0.191428        -1.326058
 H         1.288039         1.369819        -0.366231
 H        -2.574653        -1.412100         1.088430
 H        -2.933487         1.331202         0.849576
 H        -2.980085        -0.084089        -1.599395
 H        -3.352984        -3.131789        -0.716830
 H        -4.240134        -3.228007        -3.110207
 H        -3.793103        -1.466175        -3.452859
 H        -2.683438        -2.937270        -3.166724
