19
Iteration:  2472charge 0 multiplicity 1
 C         1.360046        -0.008136        -0.549953
 C         0.002219        -0.023968        -0.030111
 C        -1.139393        -0.215169         0.222334
 C        -2.635638        -0.213611         0.385063
 O        -3.067298         1.033115         0.708476
 C        -3.319270        -0.897011        -0.781349
 O        -4.551463        -1.651513        -0.639583
 C        -3.417267        -2.366478        -0.997885
 C        -3.014311        -2.842357        -2.398617
 H         1.679232        -0.986303        -0.713606
 H         1.441010         0.549241        -1.505221
 H         1.928700         0.482966         0.246739
 H        -2.748218        -0.826663         1.299859
 H        -3.396845         1.673993         0.099297
 H        -3.296649        -0.399257        -1.766640
 H        -2.964295        -2.831074        -0.037224
 H        -3.437122        -3.800954        -2.695728
 H        -3.557632        -2.164334        -3.022572
 H        -1.896485        -2.889213        -2.467349
