19
Iteration:  2631
 C         1.475289         0.096236        -0.192582
 C         0.045291        -0.034660        -0.242965
 C        -1.107382        -0.171581        -0.008413
 C        -2.518367        -0.316293         0.312876
 O        -3.270103         0.952377         0.690836
 C        -3.217607        -0.900039        -0.842892
 O        -4.440898        -1.646201        -0.523117
 C        -3.268837        -2.339788        -1.021496
 C        -3.460276        -2.843273        -2.451125
 H         1.799619         0.377435         0.856891
 H         2.065850        -0.776552        -0.447968
 H         1.754974         0.848060        -0.944166
 H        -2.665954        -1.011662         1.153434
 H        -2.617086         1.593104         1.019520
 H        -3.336018        -0.117562        -1.527193
 H        -2.706329        -2.808089        -0.309395
 H        -3.981022        -3.819248        -2.522104
 H        -4.015208        -2.131059        -3.083097
 H        -2.414295        -2.831946        -2.798972
