19
Iteration:  4518charge 0 multiplicity 1
 C         1.416562         0.035142        -0.308728
 C         0.047283        -0.242590        -0.125763
 C        -1.102771        -0.383400         0.289870
 C        -2.499754        -0.364853         0.430279
 O        -3.127321         0.932373         1.030927
 C        -3.388630        -0.811485        -0.801170
 O        -4.288568        -1.993151        -0.450050
 C        -3.210319        -2.116176        -1.406429
 C        -3.579567        -2.241759        -2.865071
 H         1.539419         0.763289        -1.254489
 H         1.906722         0.404875         0.640672
 H         1.820951        -0.787434        -0.821852
 H        -2.833130        -1.149388         1.039048
 H        -2.430833         1.436849         1.498173
 H        -4.139783        -0.093619        -1.256067
 H        -2.553383        -2.948197        -0.952976
 H        -3.714703        -3.284038        -3.230446
 H        -4.510017        -1.738231        -3.114439
 H        -2.723708        -2.035904        -3.652491
