19
Iteration:  3637charge 0 multiplicity 1
 C         1.602084         0.099276        -0.247064
 C         0.115012         0.145463        -0.026842
 C        -1.062163        -0.107187        -0.036669
 C        -2.498500        -0.389453         0.369298
 O        -3.126041         0.765503         0.989213
 C        -3.293825        -0.932429        -0.750874
 O        -4.453143        -1.636761        -0.632515
 C        -3.356632        -2.345262        -1.216963
 C        -3.653491        -2.706728        -2.662668
 H         2.217305        -0.309243         0.599777
 H         1.833802        -0.447481        -1.158959
 H         1.896316         1.068533        -0.329282
 H        -2.541049        -1.139833         1.175879
 H        -3.137845         1.536603         0.377325
 H        -3.185803        -0.186158        -1.494275
 H        -2.915078        -3.082580        -0.620192
 H        -4.401164        -3.447635        -2.517548
 H        -4.089149        -1.879815        -3.142222
 H        -2.745695        -3.227462        -3.001561
