19
Iteration:  1201charge 0 multiplicity 1
 C         1.558939         0.025469        -0.247577
 C         0.046967        -0.166849        -0.023194
 C        -1.189431        -0.083995         0.057989
 C        -2.632812        -0.092628         0.230644
 O        -3.162361         1.220262         0.250378
 C        -3.373156        -0.846248        -0.929014
 O        -4.487539        -1.700395        -0.518517
 C        -3.249361        -2.345512        -0.878899
 C        -3.183763        -3.136142        -2.134240
 H         1.668797         1.078366        -0.532737
 H         2.026981        -0.023784         0.825143
 H         1.945588        -0.742963        -0.993831
 H        -2.998307        -0.654363         1.141970
 H        -3.947160         1.069211         0.920274
 H        -3.483815        -0.410274        -1.935217
 H        -2.897151        -2.731560         0.062259
 H        -3.754622        -4.092464        -2.082528
 H        -3.901782        -2.656885        -2.876307
 H        -2.092662        -3.278165        -2.437376
