19
Iteration:   103charge 0 multiplicity 1
 C         1.653252         0.309639        -0.140823
 C         0.151875        -0.010601         0.175998
 C        -1.057489        -0.104303         0.070011
 C        -2.694395        -0.083782         0.069627
 O        -3.335151         1.135531         0.081908
 C        -3.127920        -1.052718        -0.996629
 O        -4.502767        -1.436161        -0.888568
 C        -3.501477        -2.405871        -0.676029
 C        -3.332954        -3.512204        -1.722593
 H         1.950985         1.142621         0.475132
 H         2.314657        -0.476287         0.012049
 H         1.688409         0.570015        -1.221356
 H        -2.980439        -0.516308         1.049940
 H        -2.871110         1.749589        -0.535721
 H        -2.676621        -0.737007        -1.983489
 H        -3.384423        -2.800237         0.418079
 H        -4.110995        -4.281984        -1.595418
 H        -3.323452        -3.279011        -2.802140
 H        -2.409255        -4.114326        -1.564468
