19
Iteration:    65charge 0 multiplicity 1
 C         1.545576         0.192347        -0.057236
 C         0.058700         0.165615         0.040753
 C        -1.189215        -0.014025         0.078562
 C        -2.628483        -0.163349         0.128758
 O        -3.219314         1.137493         0.019997
 C        -3.103661        -1.041424        -1.010908
 O        -4.495052        -1.395291        -0.807990
 C        -3.447650        -2.484807        -0.724376
 C        -3.297869        -3.541758        -1.720602
 H         2.141331         0.661312         0.786313
 H         1.859497        -0.814909        -0.556752
 H         1.842825         0.939847        -0.825544
 H        -3.046022        -0.670236         1.000896
 H        -2.521162         1.741292        -0.377147
 H        -2.933901        -0.765084        -2.028869
 H        -3.370781        -2.867740         0.231999
 H        -4.156773        -4.195035        -1.501745
 H        -3.400651        -3.089356        -2.696811
 H        -2.348770        -4.034472        -1.544453
