19
Iteration:  1166
 C         1.428391        -0.116525        -0.231041
 C        -0.023884        -0.013855        -0.190822
 C        -1.214909        -0.098933         0.021222
 C        -2.743035        -0.102469         0.303714
 O        -3.259434         1.233678         0.358647
 C        -3.247478        -0.867522        -0.890921
 O        -4.431607        -1.624573        -0.570323
 C        -3.215795        -2.330829        -0.857793
 C        -3.125533        -3.234421        -2.144974
 H         1.843646         0.934933        -0.132411
 H         1.680094        -0.647594         0.670528
 H         1.851715        -0.561694        -1.179665
 H        -3.016175        -0.519602         1.294648
 H        -2.507670         1.900844         0.565241
 H        -3.078545        -0.379264        -1.839986
 H        -3.040392        -2.921490         0.061535
 H        -3.376754        -4.316110        -1.938374
 H        -3.684140        -2.705234        -2.989273
 H        -2.027408        -3.230331        -2.526562
