19
Iteration:   919charge 0 multiplicity 1
 C         1.575387         0.130687        -0.063047
 C         0.073035         0.184128        -0.081948
 C        -1.131971        -0.065670         0.102475
 C        -2.650469        -0.110884         0.262118
 O        -3.069829         1.250124         0.335898
 C        -3.204563        -0.981293        -0.973973
 O        -4.551809        -1.648897        -0.787374
 C        -3.357265        -2.461793        -0.839603
 C        -3.381153        -3.391457        -2.040262
 H         2.019281        -0.827142         0.148329
 H         2.017325         0.523893        -1.094686
 H         1.904902         0.923423         0.589498
 H        -2.879340        -0.750173         1.181444
 H        -3.822320         1.370740        -0.210246
 H        -3.044110        -0.473011        -1.979564
 H        -3.243408        -3.043596         0.122351
 H        -4.168545        -4.300486        -2.009611
 H        -3.721866        -2.850247        -2.980347
 H        -2.296669        -3.707436        -2.221638
