19
Iteration:  1853
 C         1.433585        -0.190892        -0.289565
 C        -0.013107         0.028707        -0.281002
 C        -1.147648        -0.039342         0.011435
 C        -2.608762        -0.108688         0.328755
 O        -3.287624         1.171222         0.546648
 C        -3.316604        -0.891822        -0.676462
 O        -4.422413        -1.813008        -0.483495
 C        -3.155998        -2.334672        -0.980224
 C        -3.254226        -2.910315        -2.319885
 H         1.964121        -0.705753        -1.130792
 H         2.070886         0.756985        -0.175985
 H         1.590044        -0.815071         0.620894
 H        -2.809211        -0.619838         1.309998
 H        -3.038221         1.763710        -0.203177
 H        -3.396827        -0.373424        -1.625218
 H        -2.684329        -2.993920        -0.318220
 H        -3.375660        -4.026265        -2.470656
 H        -4.014195        -2.384526        -2.918351
 H        -2.307841        -2.848671        -2.887408
