19
Iteration:   442charge 0 multiplicity 1
 C         1.436273        -0.108483        -0.136894
 C         0.067914        -0.020074         0.214348
 C        -1.177280        -0.036147         0.013912
 C        -2.640441        -0.037546         0.079962
 O        -3.290654         1.266336        -0.024352
 C        -3.424011        -0.932750        -0.894033
 O        -4.503714        -1.736595        -0.430093
 C        -3.265027        -2.343493        -0.798765
 C        -2.977892        -3.200488        -2.043953
 H         1.833510        -0.816137         0.614890
 H         1.467927        -0.402357        -1.151999
 H         2.132142         0.777089        -0.253026
 H        -2.890563        -0.422412         1.092438
 H        -3.145272         1.774181        -0.793808
 H        -3.672808        -0.469136        -1.858451
 H        -2.738860        -2.476543         0.118236
 H        -3.400534        -4.195453        -2.020397
 H        -3.370081        -2.607672        -2.901931
 H        -1.858715        -3.367022        -2.073296
