19
Iteration:  2784
 C         1.621937         0.306719        -0.323589
 C         0.090220         0.041927        -0.054574
 C        -1.113802        -0.164082         0.127395
 C        -2.523980        -0.400917         0.402353
 O        -3.148060         0.822200         0.796023
 C        -3.250310        -0.940940        -0.782740
 O        -4.529843        -1.416937        -0.713884
 C        -3.421767        -2.419361        -1.091769
 C        -3.517719        -2.985226        -2.518860
 H         1.817472         1.228963        -0.847600
 H         2.033587         0.345696         0.693056
 H         2.170068        -0.507071        -0.824917
 H        -2.458572        -1.149858         1.297850
 H        -2.486742         1.472066         0.484754
 H        -3.013239        -0.269180        -1.634625
 H        -3.402863        -3.097556        -0.216115
 H        -4.326616        -3.789551        -2.565460
 H        -3.655582        -2.271216        -3.315976
 H        -2.561291        -3.587288        -2.756153
