19
Iteration:  4253charge 0 multiplicity 1
 C         1.433985         0.283847        -0.465335
 C         0.083507        -0.105576        -0.008246
 C        -1.088254        -0.425726         0.298040
 C        -2.521560        -0.465745         0.566506
 O        -3.087752         0.720960         0.997252
 C        -3.187496        -0.914471        -0.779676
 O        -4.464142        -1.417382        -0.644652
 C        -3.450705        -2.351573        -1.343668
 C        -3.476912        -2.596772        -2.800938
 H         2.265821         0.269373         0.231775
 H         1.611670        -0.283031        -1.413499
 H         1.233310         1.357116        -0.770702
 H        -2.839405        -1.272799         1.360991
 H        -2.474088         1.113691         1.657468
 H        -3.023903        -0.041682        -1.410282
 H        -3.458597        -3.246684        -0.649816
 H        -4.376364        -3.066356        -3.178680
 H        -3.217697        -1.599268        -3.230282
 H        -2.508281        -3.072800        -3.101354
