19
Iteration:  2985charge 0 multiplicity 1
 C         1.319599         0.228422        -0.372301
 C         0.019880        -0.220574        -0.098831
 C        -1.115539        -0.290160         0.238964
 C        -2.516561        -0.413554         0.426471
 O        -3.156729         0.987094         0.786884
 C        -3.160134        -0.865853        -0.892310
 O        -4.432169        -1.608717        -0.659256
 C        -3.234031        -2.273427        -1.095162
 C        -3.463836        -2.799273        -2.513215
 H         2.093847        -0.569219        -0.692586
 H         1.183355         0.814478        -1.263008
 H         1.613844         0.641871         0.480531
 H        -2.707382        -1.042041         1.315987
 H        -2.318148         1.472564         0.916622
 H        -3.228307         0.097661        -1.422465
 H        -2.639707        -2.762348        -0.390318
 H        -4.288532        -3.511816        -2.320785
 H        -3.949798        -2.071573        -3.236544
 H        -2.636291        -3.403400        -3.024872
