19
Iteration:  1673charge 0 multiplicity 1
 C         1.502684         0.078767        -0.417387
 C         0.090941        -0.132256         0.108618
 C        -1.091579        -0.120972         0.049640
 C        -2.603930        -0.240052         0.247057
 O        -3.233142         1.078270         0.335670
 C        -3.277349        -0.907795        -0.874564
 O        -4.488593        -1.598003        -0.366721
 C        -3.341894        -2.356575        -0.971568
 C        -3.269196        -2.993243        -2.308776
 H         1.590342         1.171279        -0.223547
 H         2.252829        -0.505221         0.198790
 H         1.426780        -0.078592        -1.506822
 H        -2.759283        -0.752083         1.222169
 H        -3.182401         1.315039         1.289336
 H        -3.349423        -0.237864        -1.764042
 H        -3.060407        -3.097630        -0.275251
 H        -3.812297        -3.948778        -2.251484
 H        -3.631475        -2.316543        -3.095839
 H        -2.153380        -3.051441        -2.373147
