19
Iteration:    35
 C         1.434152         0.154909        -0.012775
 C         0.018891         0.132794        -0.171441
 C        -1.193924         0.017500         0.115362
 C        -2.584356         0.111599         0.199524
 O        -3.160011         1.298403         0.055828
 C        -3.074695        -1.038343        -0.855234
 O        -4.386161        -1.589659        -0.894543
 C        -3.440715        -2.582929        -0.712715
 C        -3.392245        -3.627609        -1.801881
 H         1.743880         0.041179         1.006989
 H         1.871863        -0.555251        -0.628338
 H         1.850723         1.140754        -0.373785
 H        -2.971961        -0.351262         1.081954
 H        -2.577277         1.950229        -0.260519
 H        -2.796128        -0.759159        -1.897772
 H        -3.458552        -3.034899         0.317039
 H        -4.123622        -4.378667        -1.564509
 H        -3.708752        -3.155615        -2.746065
 H        -2.405180        -4.119833        -1.950474
