19
Iteration:  1139
 C         1.389687        -0.156863        -0.295761
 C        -0.005250        -0.007726        -0.126613
 C        -1.172286         0.063036         0.110049
 C        -2.700983        -0.063975         0.302590
 O        -3.200710         1.254042         0.448663
 C        -3.237925        -0.924928        -0.906953
 O        -4.510662        -1.701122        -0.678716
 C        -3.237617        -2.339899        -0.861300
 C        -3.067511        -3.219334        -2.092924
 H         1.986664         0.661066         0.005329
 H         1.635173        -1.090575         0.298968
 H         1.737131        -0.434129        -1.272676
 H        -2.942961        -0.438150         1.303119
 H        -3.421322         1.733001        -0.436127
 H        -3.147772        -0.352638        -1.868552
 H        -3.059607        -2.850476         0.081045
 H        -3.478789        -4.194034        -1.929973
 H        -3.560216        -2.652182        -2.845741
 H        -2.096234        -3.304340        -2.484354
