19
Iteration:   816charge 0 multiplicity 1
 C         1.500563         0.303550         0.100422
 C         0.095006         0.231184         0.000829
 C        -1.092733        -0.009962         0.036986
 C        -2.508097        -0.145673         0.120852
 O        -3.108540         1.089651         0.189736
 C        -3.124573        -1.054315        -0.874481
 O        -4.444264        -1.541515        -0.666062
 C        -3.423543        -2.528325        -0.902378
 C        -3.663744        -3.457057        -2.107658
 H         2.162560        -0.198847        -0.688838
 H         1.917150         1.297972        -0.015444
 H         1.925212        -0.012794         1.138166
 H        -2.696129        -0.562772         1.196588
 H        -2.669125         1.494873        -0.633667
 H        -3.070474        -0.597798        -1.856374
 H        -3.045067        -2.941787         0.051339
 H        -4.417991        -4.329733        -1.883391
 H        -4.012832        -2.859228        -3.003200
 H        -2.750968        -4.006424        -2.470173
