19
Iteration:  3300charge 0 multiplicity 1
 C         1.350547         0.012089        -0.437759
 C         0.029424        -0.018968        -0.092136
 C        -1.179662        -0.209130         0.043987
 C        -2.602417        -0.362322         0.446228
 O        -3.093826         0.924331         0.970748
 C        -3.273660        -0.769216        -0.821494
 O        -4.508713        -1.725185        -0.581049
 C        -3.216371        -2.158699        -1.201846
 C        -3.306017        -2.795170        -2.568154
 H         1.534271         0.896740        -0.989362
 H         1.979526         0.004962         0.490825
 H         1.741980        -0.980339        -1.039269
 H        -2.796337        -1.147040         1.137361
 H        -2.410870         1.318094         1.527277
 H        -3.422636        -0.058043        -1.661867
 H        -2.799772        -2.858805        -0.501862
 H        -3.824990        -3.702244        -2.652327
 H        -3.780065        -1.997601        -3.196654
 H        -2.315310        -2.932629        -3.041299
