19
Iteration:  1479charge 0 multiplicity 1
 C         1.465758         0.291484        -0.409018
 C         0.039772         0.156811        -0.101037
 C        -1.034759        -0.211580         0.264776
 C        -2.536285        -0.315001         0.387378
 O        -3.162186         1.002400         0.489030
 C        -3.005128        -1.063593        -0.857585
 O        -4.417871        -1.346542        -0.854120
 C        -3.460628        -2.445651        -0.811313
 C        -3.550302        -3.230895        -2.145599
 H         1.995125        -0.505667         0.048564
 H         1.759178         0.333445        -1.531224
 H         1.798083         1.158583         0.105968
 H        -2.748538        -1.040998         1.215603
 H        -3.885238         1.394208        -0.130377
 H        -2.604332        -0.669484        -1.847722
 H        -3.147638        -2.989657         0.121446
 H        -4.514074        -3.760806        -2.073509
 H        -3.687192        -2.447659        -2.927820
 H        -2.805659        -4.017721        -2.351912
