19
Iteration:  2011
 C         1.500543         0.193606        -0.544870
 C         0.133598         0.058019        -0.045052
 C        -1.044517        -0.271736         0.186899
 C        -2.561981        -0.337150         0.415212
 O        -3.187218         0.970929         0.546379
 C        -3.221512        -0.935790        -0.812308
 O        -4.669733        -1.380593        -0.877156
 C        -3.499373        -2.313423        -0.821289
 C        -3.145386        -3.140995        -2.200599
 H         2.078145        -0.740145        -0.137896
 H         1.377286        -0.039726        -1.570747
 H         1.812732         1.188779        -0.276437
 H        -2.837129        -0.840761         1.347997
 H        -2.972045         1.232948         1.462948
 H        -3.212896        -0.442805        -1.789627
 H        -3.418461        -2.870111         0.127182
 H        -3.742808        -4.057977        -2.136630
 H        -3.383398        -2.457511        -3.065938
 H        -2.041405        -3.323898        -2.093741
