19
Iteration:  4844charge 0 multiplicity 1
 C         1.365304         0.363514        -0.547494
 C         0.012226        -0.153971        -0.112973
 C        -1.000601        -0.584123         0.453669
 C        -2.481169        -0.708018         0.601139
 O        -3.044395         0.527047         1.202301
 C        -3.217355        -0.872595        -0.773656
 O        -4.492292        -1.225709        -0.829833
 C        -3.445677        -2.190525        -1.324705
 C        -3.459520        -2.479879        -2.803757
 H         1.976399        -0.133921         0.250191
 H         1.761149         0.411391        -1.580037
 H         1.550762         1.405999        -0.229161
 H        -2.710089        -1.439243         1.329826
 H        -2.722439         1.291306         0.705615
 H        -3.024074         0.034621        -1.521791
 H        -3.325615        -3.127073        -0.673625
 H        -4.019390        -3.420430        -2.900970
 H        -3.961675        -1.751679        -3.427014
 H        -2.323286        -2.487055        -3.077105
