19
Iteration:  4078
 C         1.596449         0.231232        -0.089427
 C         0.160425         0.019230        -0.050245
 C        -1.005586        -0.339412         0.002051
 C        -2.505025        -0.419052         0.429536
 O        -3.094491         0.779107         0.868281
 C        -3.280698        -0.866263        -0.756846
 O        -4.504887        -1.723003        -0.578126
 C        -3.324615        -2.218155        -1.328337
 C        -3.749480        -2.612438        -2.746195
 H         2.039074        -0.564702        -0.814230
 H         1.601802         1.211293        -0.645154
 H         2.103691         0.253607         0.894169
 H        -2.577022        -1.209844         1.166071
 H        -2.414956         1.077750         1.517675
 H        -3.375896        -0.127595        -1.629763
 H        -2.736053        -2.956736        -0.660484
 H        -4.440323        -3.434488        -2.705289
 H        -4.393833        -1.730654        -3.064371
 H        -3.018834        -2.855600        -3.498571
