19
Iteration:   610
 C         1.389247        -0.041642        -0.236806
 C        -0.060603        -0.038669        -0.213079
 C        -1.199065        -0.125650         0.257888
 C        -2.637420        -0.043555         0.309651
 O        -3.410392         1.232734         0.034964
 C        -3.114592        -0.970036        -0.824032
 O        -4.398973        -1.460476        -0.852137
 C        -3.137196        -2.421378        -0.682326
 C        -3.120971        -3.317513        -1.923731
 H         1.758646         0.981080        -0.006111
 H         1.666387        -0.824662         0.570933
 H         1.931742        -0.378172        -1.162293
 H        -3.112850        -0.266826         1.325372
 H        -3.324619         1.808389         0.771149
 H        -2.761826        -0.541002        -1.800851
 H        -3.202422        -2.951428         0.349414
 H        -3.963295        -4.038821        -1.909465
 H        -3.361830        -2.640684        -2.743083
 H        -2.225129        -3.872833        -1.879345
