19
Iteration:  2268
 C         1.497378         0.271248        -0.249879
 C         0.138596        -0.026311        -0.150628
 C        -1.057836        -0.254286         0.066551
 C        -2.570853        -0.262420         0.310797
 O        -3.135125         1.046762         0.499076
 C        -3.324159        -0.942768        -0.847681
 O        -4.510489        -1.613534        -0.420371
 C        -3.403927        -2.380651        -1.034018
 C        -3.422570        -3.034104        -2.399222
 H         1.772191         1.159341        -0.717329
 H         1.840619         0.393700         0.792231
 H         2.140282        -0.497891        -0.729415
 H        -2.706273        -1.028395         1.202686
 H        -2.733189         1.474622         1.270411
 H        -3.311500        -0.310616        -1.793611
 H        -2.775763        -2.985039        -0.385482
 H        -4.108130        -3.843716        -2.718078
 H        -3.726468        -2.226751        -3.068433
 H        -2.455030        -3.400841        -2.741315
