19
Iteration:  4183charge 0 multiplicity 1
 C         1.534741         0.232133        -0.187231
 C         0.055190         0.017282        -0.161539
 C        -1.072704        -0.295375         0.140223
 C        -2.449346        -0.448738         0.428698
 O        -3.103671         0.643912         1.090051
 C        -3.137576        -0.811593        -0.939493
 O        -4.452924        -1.479556        -0.607750
 C        -3.482598        -2.237075        -1.269760
 C        -3.664743        -2.758007        -2.776800
 H         2.198990        -0.562100         0.249923
 H         1.891724         0.345611        -1.272291
 H         1.822092         1.255851         0.345916
 H        -2.519797        -1.481379         0.972764
 H        -2.464234         1.024442         1.734325
 H        -3.534095        -0.076911        -1.693178
 H        -2.959155        -2.979261        -0.680449
 H        -4.460140        -3.580015        -2.807187
 H        -3.920077        -1.867637        -3.450504
 H        -2.653803        -2.983800        -3.190989
