19
Iteration:  4496charge 0 multiplicity 1
 C         1.512510        -0.011729        -0.388795
 C         0.053287        -0.187015        -0.026836
 C        -1.134703        -0.330257         0.181996
 C        -2.648197        -0.385858         0.572482
 O        -3.117772         0.896709         0.970460
 C        -3.401734        -0.821418        -0.660052
 O        -4.279736        -1.929035        -0.561461
 C        -3.154981        -2.073531        -1.437028
 C        -3.634196        -2.345646        -2.836613
 H         1.534315         0.948258        -1.063959
 H         2.090271         0.200326         0.546409
 H         1.930796        -0.706993        -1.062163
 H        -2.845001        -1.140403         1.283298
 H        -2.592647         1.114028         1.760307
 H        -3.615798        -0.033773        -1.410610
 H        -2.327355        -2.766001        -1.030665
 H        -3.812726        -3.368198        -3.192722
 H        -4.505705        -1.716111        -3.017761
 H        -2.704187        -2.053101        -3.478557
