19
Iteration:  4155charge 0 multiplicity 1
 C         1.614019         0.194296        -0.116346
 C         0.103997         0.017793        -0.149277
 C        -1.083369        -0.103329         0.039209
 C        -2.403560        -0.531725         0.384216
 O        -3.075751         0.575251         1.043294
 C        -3.269516        -0.865327        -0.916317
 O        -4.590273        -1.492706        -0.674085
 C        -3.329436        -2.240420        -1.261317
 C        -3.696764        -2.682199        -2.664231
 H         2.074730        -0.765382         0.223970
 H         1.909163         0.704567        -1.056029
 H         1.846093         0.916987         0.649277
 H        -2.351238        -1.458190         0.889815
 H        -2.390460         1.136382         1.447631
 H        -3.454915        -0.064329        -1.646223
 H        -2.811204        -2.870827        -0.471560
 H        -4.124740        -3.657721        -2.679968
 H        -4.504512        -1.954786        -2.930719
 H        -2.870496        -2.671213        -3.397914
