19
Iteration:  4527charge 0 multiplicity 1
 C         1.426922         0.014950        -0.304868
 C         0.011481        -0.236693        -0.133550
 C        -1.109356        -0.311603         0.274993
 C        -2.591604        -0.402359         0.436125
 O        -3.071692         0.867335         0.979751
 C        -3.440713        -0.824320        -0.707852
 O        -4.257000        -1.953791        -0.413742
 C        -3.222459        -2.106296        -1.442467
 C        -3.581114        -2.269307        -2.906554
 H         1.396213         0.801149        -1.095950
 H         1.923516         0.514699         0.527511
 H         2.062925        -0.826826        -0.612685
 H        -2.812694        -1.221289         1.181355
 H        -2.273921         1.377741         1.209300
 H        -3.827034        -0.066049        -1.369941
 H        -2.455393        -2.748475        -1.127045
 H        -3.749627        -3.274993        -3.203146
 H        -4.366440        -1.650454        -3.133005
 H        -2.660282        -1.804510        -3.279066
