19
Iteration:  2804
 C         1.484216         0.246898        -0.293923
 C         0.129152         0.131778         0.049450
 C        -1.047703        -0.115123         0.103720
 C        -2.436898        -0.394552         0.344797
 O        -3.101895         0.774223         0.905601
 C        -3.194259        -0.915126        -0.974480
 O        -4.591495        -1.460630        -0.784051
 C        -3.470497        -2.362770        -1.075789
 C        -3.507411        -3.007122        -2.422255
 H         1.484281         0.934763        -1.091947
 H         2.269878         0.583205         0.429694
 H         1.787165        -0.774200        -0.791333
 H        -2.573136        -1.267297         0.994203
 H        -2.537574         1.532730         0.635703
 H        -3.173768        -0.306048        -1.848512
 H        -3.024626        -3.011455        -0.205524
 H        -4.318326        -3.735463        -2.362463
 H        -3.763300        -2.271422        -3.152548
 H        -2.646768        -3.592791        -2.599938
