19
Iteration:   470
 C         1.443496        -0.168807        -0.084789
 C        -0.020579        -0.099224        -0.140805
 C        -1.249133         0.048808         0.052138
 C        -2.763519         0.009146         0.247124
 O        -3.249267         1.441342         0.073049
 C        -3.347953        -0.967452        -0.819073
 O        -4.441174        -1.776960        -0.606057
 C        -3.157633        -2.427845        -0.774179
 C        -3.034786        -3.211350        -1.994006
 H         1.711582        -0.381493         0.957999
 H         1.970788        -0.810209        -0.903558
 H         1.877530         0.801889        -0.244396
 H        -3.086290        -0.315417         1.260379
 H        -3.106183         1.758727        -0.834041
 H        -3.302308        -0.590088        -1.878761
 H        -2.746233        -2.676317         0.239877
 H        -3.284217        -4.320116        -2.025363
 H        -3.602332        -2.839177        -2.854020
 H        -1.942103        -3.329141        -2.316073
