19
Iteration:  3755charge 0 multiplicity 1
 C         1.356546         0.090520        -0.622273
 C        -0.005610        -0.046804        -0.014106
 C        -1.120215        -0.380868         0.334202
 C        -2.652233        -0.327835         0.520570
 O        -3.062262         0.891637         1.027264
 C        -3.259374        -0.820925        -0.803718
 O        -4.478628        -1.625493        -0.649685
 C        -3.368020        -2.252242        -1.209889
 C        -3.231356        -2.711696        -2.695630
 H         1.947967         0.774740        -0.101971
 H         1.716423        -0.938547        -0.393109
 H         1.355438         0.422727        -1.762692
 H        -3.079950        -1.092918         1.259652
 H        -2.230551         1.385848         0.956899
 H        -3.211785        -0.132681        -1.603488
 H        -2.843187        -2.916785        -0.544432
 H        -3.678808        -3.643238        -2.958018
 H        -3.853896        -1.956855        -3.202516
 H        -2.216047        -2.653951        -3.057300
