19
Iteration:  2568charge 0 multiplicity 1
 C         1.506265        -0.061210        -0.394904
 C         0.114616         0.105845         0.018226
 C        -1.148164        -0.071677         0.042754
 C        -2.643295        -0.254902         0.339566
 O        -3.259370         1.029675         0.683081
 C        -3.313225        -0.868229        -0.797676
 O        -4.459441        -1.671934        -0.561550
 C        -3.175520        -2.308491        -1.052970
 C        -3.355473        -2.934543        -2.480540
 H         2.138669        -0.651635         0.401183
 H         1.584030        -0.601571        -1.319548
 H         1.834997         0.928706        -0.528743
 H        -2.698531        -0.937929         1.209396
 H        -2.812373         1.114020         1.553607
 H        -3.536891        -0.214412        -1.658389
 H        -2.644355        -3.014199        -0.379840
 H        -4.009324        -3.808249        -2.469732
 H        -3.840850        -2.302673        -3.194826
 H        -2.448862        -3.392621        -2.925483
