19
Iteration:  3644
 C         1.535406         0.093583        -0.263198
 C         0.144251         0.086170        -0.016766
 C        -1.094551        -0.091648        -0.053321
 C        -2.548178        -0.364389         0.373120
 O        -3.086104         0.718035         0.968984
 C        -3.239786        -0.933565        -0.757023
 O        -4.491207        -1.623409        -0.613500
 C        -3.353369        -2.303337        -1.143797
 C        -3.598792        -2.690546        -2.680231
 H         2.071434        -0.136953         0.626900
 H         1.814162        -0.520910        -1.152525
 H         2.023449         1.233665        -0.332933
 H        -2.431090        -1.169996         1.184101
 H        -3.037074         1.426676         0.292814
 H        -3.477252        -0.169076        -1.587553
 H        -2.824739        -3.122468        -0.531467
 H        -4.350843        -3.486480        -2.461037
 H        -4.084662        -1.903380        -3.380718
 H        -2.712075        -3.112922        -3.113592
