19
Iteration:  4559charge 0 multiplicity 1
 C         1.435770        -0.001761        -0.263244
 C         0.029499        -0.096844        -0.059654
 C        -1.126062        -0.388653         0.034899
 C        -2.532154        -0.414574         0.496743
 O        -3.054319         0.878380         0.970813
 C        -3.486379        -0.912919        -0.549506
 O        -4.358137        -2.008152        -0.546964
 C        -3.197721        -2.045447        -1.413659
 C        -3.552435        -2.217768        -2.833600
 H         1.423063         0.415019        -1.276886
 H         1.953283         0.692829         0.393142
 H         2.005601        -0.952105        -0.374482
 H        -2.470717        -1.108335         1.446218
 H        -2.310114         1.480818         0.747488
 H        -3.691403         0.024643        -1.049118
 H        -2.470173        -2.711390        -1.109200
 H        -3.809708        -3.225057        -3.104140
 H        -4.273699        -1.549483        -3.143686
 H        -2.711092        -1.965473        -3.512830
