19
Iteration:  1112
 C         1.406323        -0.184309        -0.343372
 C         0.025762        -0.080546        -0.020537
 C        -1.175668         0.021654         0.120528
 C        -2.665304        -0.063610         0.280851
 O        -3.304608         1.267868         0.351702
 C        -3.241014        -0.921169        -0.898604
 O        -4.466907        -1.603500        -0.689887
 C        -3.226597        -2.348806        -0.873886
 C        -3.035461        -3.191978        -2.027756
 H         2.200386         0.537506         0.071902
 H         1.739276        -1.262377        -0.232630
 H         1.536819        -0.144009        -1.495227
 H        -2.786524        -0.399698         1.350784
 H        -4.333661         1.137161         0.427290
 H        -3.292254        -0.263268        -1.745680
 H        -2.965207        -2.756243         0.122400
 H        -3.667949        -4.122674        -2.042614
 H        -3.317393        -2.595837        -2.950043
 H        -1.935815        -3.403153        -2.227319
