19
Iteration:  3818charge 0 multiplicity 1
 C         1.272481        -0.035349        -0.665628
 C        -0.049022        -0.190510        -0.184864
 C        -1.141940        -0.247034         0.355695
 C        -2.589640        -0.285568         0.521428
 O        -3.262123         0.863894         1.069966
 C        -3.174645        -0.901900        -0.700928
 O        -4.349814        -1.550528        -0.658102
 C        -3.256196        -2.338299        -1.134023
 C        -3.210153        -2.522681        -2.714267
 H         1.711529         0.930009        -0.466132
 H         1.943908        -0.571568         0.014839
 H         1.604352        -0.456004        -1.619555
 H        -2.952559        -1.057210         1.164085
 H        -3.323707         1.704525         0.600403
 H        -3.180470        -0.139698        -1.565667
 H        -2.890519        -3.150714        -0.466668
 H        -3.999646        -3.256071        -3.013148
 H        -3.117879        -1.485924        -3.303482
 H        -2.324409        -3.166682        -2.917641
