19
Iteration:    45charge 0 multiplicity 1
 C         1.426101         0.183262        -0.066215
 C         0.004227         0.149378        -0.076808
 C        -1.157716        -0.023347         0.074792
 C        -2.595203        -0.075757         0.168860
 O        -3.214899         1.357416         0.053215
 C        -3.039088        -1.039587        -0.894413
 O        -4.414913        -1.481266        -0.844290
 C        -3.451456        -2.556917        -0.685380
 C        -3.382089        -3.673844        -1.842311
 H         1.639930         0.192793         1.024295
 H         1.824698        -0.728128        -0.510757
 H         1.981209         1.073583        -0.444295
 H        -2.822456        -0.333997         1.167856
 H        -2.507449         1.916504        -0.262163
 H        -2.583719        -0.838383        -1.862862
 H        -3.232007        -2.962217         0.263417
 H        -4.074538        -4.465838        -1.600588
 H        -3.562047        -3.259234        -2.836485
 H        -2.359834        -4.035291        -1.729219
