19
Iteration:  1671
 C         1.505624         0.078694        -0.400580
 C         0.094887        -0.125189         0.105272
 C        -1.112680        -0.134239         0.033784
 C        -2.583311        -0.234409         0.255447
 O        -3.232457         1.080406         0.348513
 C        -3.284200        -0.900632        -0.888964
 O        -4.491477        -1.591373        -0.372120
 C        -3.350326        -2.340620        -0.954447
 C        -3.263498        -3.003063        -2.317788
 H         1.640950         1.211487        -0.278824
 H         2.204392        -0.528150         0.121492
 H         1.421943        -0.031785        -1.504287
 H        -2.824013        -0.810236         1.242486
 H        -3.159594         1.278792         1.271525
 H        -3.318815        -0.300308        -1.789238
 H        -3.000649        -3.149491        -0.197067
 H        -3.749250        -3.972865        -2.303041
 H        -3.631994        -2.334583        -3.042704
 H        -2.188869        -3.154802        -2.414810
