19
Iteration:  4182charge 0 multiplicity 1
 C         1.536465         0.236505        -0.182935
 C         0.059550         0.015061        -0.171649
 C        -1.076422        -0.285175         0.149498
 C        -2.452575        -0.444816         0.417934
 O        -3.097630         0.637456         1.089258
 C        -3.145962        -0.807879        -0.936166
 O        -4.444365        -1.482741        -0.612543
 C        -3.490793        -2.247375        -1.263726
 C        -3.665466        -2.746479        -2.777685
 H         2.189834        -0.609198         0.282032
 H         1.864369         0.368956        -1.248239
 H         1.821460         1.220674         0.342769
 H        -2.528691        -1.458001         0.940031
 H        -2.452088         1.014771         1.720410
 H        -3.506342        -0.080555        -1.679356
 H        -2.954975        -2.975417        -0.664063
 H        -4.426094        -3.580877        -2.783930
 H        -3.957518        -1.908698        -3.445103
 H        -2.663734        -2.996606        -3.181506
