19
Iteration:  2139
 C         1.648080         0.270841        -0.203358
 C         0.177575         0.110037         0.028618
 C        -1.026985        -0.065698        -0.019816
 C        -2.443915        -0.289732         0.202933
 O        -3.227401         0.914494         0.548334
 C        -3.225932        -1.036642        -0.828314
 O        -4.529145        -1.543767        -0.569237
 C        -3.465063        -2.529134        -0.939707
 C        -3.594787        -2.976665        -2.330190
 H         2.174411         0.902057         0.612895
 H         2.071328        -0.750238        -0.258504
 H         1.944644         0.724111        -1.184844
 H        -2.278439        -0.681945         1.191636
 H        -3.612478         1.432909        -0.170473
 H        -3.111402        -0.549097        -1.842244
 H        -3.190808        -3.271793        -0.058838
 H        -4.106532        -3.972184        -2.313318
 H        -4.105987        -2.303960        -3.030390
 H        -2.617466        -3.141520        -2.806121
