19
Iteration:  1972charge 0 multiplicity 1
 C         1.324856         0.120362        -0.503741
 C        -0.028095        -0.129804        -0.156627
 C        -1.128110        -0.140825         0.257714
 C        -2.625804        -0.208660         0.386565
 O        -3.118792         1.121177         0.560262
 C        -3.108271        -0.959793        -0.794852
 O        -4.513241        -1.424132        -0.754610
 C        -3.398233        -2.425860        -0.935538
 C        -3.176185        -3.134537        -2.221564
 H         1.855893        -0.778247        -0.511674
 H         1.372295         0.496129        -1.585776
 H         1.953282         0.793495         0.094369
 H        -2.869659        -0.799199         1.322528
 H        -3.310053         1.122298         1.525716
 H        -2.712302        -0.421605        -1.668606
 H        -3.353238        -3.036520         0.026520
 H        -3.652079        -4.097227        -2.340486
 H        -3.467705        -2.412819        -3.000138
 H        -2.137330        -3.342613        -2.420781
