19
Iteration:   135charge 0 multiplicity 1
 C         1.415083         0.261982        -0.016667
 C        -0.014314         0.106183        -0.226187
 C        -1.158096         0.055831         0.167783
 C        -2.639911        -0.127320         0.244756
 O        -3.077738         1.193439         0.131591
 C        -2.982349        -1.124798        -0.887309
 O        -4.446487        -1.462920        -0.968791
 C        -3.489522        -2.468919        -0.729508
 C        -3.377330        -3.553099        -1.777155
 H         1.605731         1.290614         0.191105
 H         1.768674        -0.487995         0.607178
 H         1.976018         0.104944        -1.000973
 H        -2.883041        -0.464350         1.240835
 H        -2.926990         1.493664        -0.806073
 H        -2.556642        -0.788969        -1.906275
 H        -3.477803        -2.739257         0.347194
 H        -4.186247        -4.166793        -1.369122
 H        -3.604011        -3.388178        -2.834047
 H        -2.477639        -4.206624        -1.686591
