19
Iteration:  4976charge 0 multiplicity 1
 C         1.552591         0.178322        -0.069861
 C         0.159428        -0.115366        -0.064401
 C        -1.053442        -0.063310        -0.105795
 C        -2.453914        -0.509021         0.315079
 O        -3.041474         0.387530         1.246494
 C        -3.284010        -0.808670        -0.902399
 O        -4.438159        -1.593159        -0.551039
 C        -3.357482        -2.157643        -1.402175
 C        -3.835337        -2.446164        -2.791220
 H         1.646117         0.615013         0.973134
 H         2.294104        -0.653890        -0.054340
 H         1.688986         1.005608        -0.735606
 H        -2.283281        -1.555335         0.929787
 H        -2.602188         1.230576         1.061102
 H        -3.559761         0.063466        -1.661211
 H        -2.743570        -2.969534        -0.877090
 H        -4.369412        -3.306754        -3.072563
 H        -4.275883        -1.492603        -3.169902
 H        -2.958337        -2.491234        -3.531406
