19
Iteration:  2473charge 0 multiplicity 1
 C         1.355604        -0.007115        -0.549709
 C         0.010833        -0.029651        -0.031696
 C        -1.146448        -0.208826         0.226230
 C        -2.637757        -0.208298         0.390573
 O        -3.064939         1.028894         0.706993
 C        -3.317570        -0.904847        -0.783129
 O        -4.550830        -1.652086        -0.641833
 C        -3.410656        -2.362737        -0.995432
 C        -3.019118        -2.838714        -2.403620
 H         1.683973        -0.994935        -0.701892
 H         1.429239         0.549759        -1.542750
 H         1.943748         0.502820         0.283181
 H        -2.751084        -0.827315         1.277908
 H        -3.389486         1.664741         0.087946
 H        -3.303028        -0.385255        -1.776369
 H        -2.961823        -2.810043        -0.017167
 H        -3.437175        -3.832694        -2.700897
 H        -3.604743        -2.149786        -3.010892
 H        -1.887569        -2.910766        -2.446791
