19
Iteration:  4547charge 0 multiplicity 1
 C         1.442747         0.060895        -0.319985
 C         0.020051        -0.201712        -0.040916
 C        -1.207639        -0.313222         0.060243
 C        -2.524519        -0.488581         0.594393
 O        -3.042658         0.855960         0.919318
 C        -3.407634        -0.826249        -0.633977
 O        -4.339583        -1.980200        -0.476233
 C        -3.198040        -2.065076        -1.407840
 C        -3.535476        -2.209036        -2.908476
 H         1.712797         0.556069        -1.196252
 H         1.902416         0.544953         0.522453
 H         1.876753        -1.008477        -0.365901
 H        -2.718512        -1.274063         1.449009
 H        -2.344379         1.511116         0.811589
 H        -4.007594        -0.059963        -0.998646
 H        -2.503113        -2.713624        -1.018092
 H        -3.812623        -3.254589        -3.009027
 H        -4.451175        -1.693880        -3.111893
 H        -2.715214        -2.010766        -3.555352
