19
Iteration:  1880
 C         1.449081        -0.172298        -0.416572
 C         0.042052        -0.011450        -0.013901
 C        -1.167205         0.135325         0.039644
 C        -2.592254        -0.140319         0.316072
 O        -3.297699         1.152095         0.534387
 C        -3.339371        -0.876658        -0.756597
 O        -4.455885        -1.757365        -0.457376
 C        -3.252542        -2.378948        -1.019846
 C        -3.204076        -3.055381        -2.343506
 H         1.629959        -0.962412        -1.199372
 H         1.927880         0.767104        -0.608995
 H         2.126125        -0.570438         0.358218
 H        -2.751988        -0.732108         1.201768
 H        -2.624149         1.846302         0.467348
 H        -3.513534        -0.204376        -1.644394
 H        -2.611730        -2.994072        -0.202872
 H        -3.616862        -3.973502        -2.701167
 H        -3.661310        -2.322178        -3.056173
 H        -2.195851        -3.052693        -2.779121
