19
Iteration:  3676
 C         1.564075         0.151855        -0.296243
 C         0.093694        -0.117702        -0.177255
 C        -1.092081        -0.196761         0.089215
 C        -2.570076        -0.352715         0.340999
 O        -3.121886         0.748725         1.018559
 C        -3.323514        -0.833076        -0.847572
 O        -4.484037        -1.582098        -0.519031
 C        -3.419615        -2.290047        -1.171944
 C        -3.429726        -2.678448        -2.626222
 H         1.968544         0.069488         0.715164
 H         2.207331        -0.507510        -0.937437
 H         1.607647         1.197744        -0.875495
 H        -2.686914        -1.190570         1.094440
 H        -2.831753         1.540853         0.543588
 H        -3.650771        -0.143729        -1.706286
 H        -2.878240        -3.039661        -0.470641
 H        -3.785840        -3.740224        -2.793405
 H        -3.831290        -2.125194        -3.552321
 H        -2.408410        -2.817489        -2.998822
