19
Iteration:  1777
 C         1.514130        -0.098584        -0.279061
 C         0.041941        -0.106083        -0.021089
 C        -1.139204        -0.138688        -0.003907
 C        -2.630236        -0.060852         0.250484
 O        -3.192483         1.263494         0.521953
 C        -3.491914        -0.834228        -0.815596
 O        -4.396198        -1.942594        -0.366873
 C        -3.187153        -2.283273        -1.071769
 C        -3.287253        -2.965468        -2.374317
 H         1.633350         0.575480        -1.160404
 H         2.047332         0.599773         0.441765
 H         1.969189        -1.106599        -0.294105
 H        -2.807200        -0.537743         1.243816
 H        -2.973782         1.864731        -0.191745
 H        -4.116293        -0.184739        -1.409934
 H        -2.251433        -2.653781        -0.566144
 H        -3.714417        -4.000249        -2.103840
 H        -4.001011        -2.489482        -3.059538
 H        -2.319959        -3.243424        -2.867382
