19
Iteration:  2001charge 0 multiplicity 1
 C         1.442856         0.184835        -0.546062
 C         0.117797         0.025582        -0.017496
 C        -1.040521        -0.249514         0.157521
 C        -2.635813        -0.305436         0.409586
 O        -3.143121         0.966686         0.520906
 C        -3.275484        -0.901387        -0.777500
 O        -4.563073        -1.441251        -0.880182
 C        -3.508788        -2.369431        -0.897290
 C        -3.174885        -3.064616        -2.078097
 H         2.099758        -0.727363        -0.222341
 H         1.400880         0.177750        -1.657901
 H         2.159901         0.986684        -0.395810
 H        -2.785252        -0.847631         1.318223
 H        -3.195138         1.154884         1.501222
 H        -2.825658        -0.274788        -1.606211
 H        -3.622447        -2.971864         0.086230
 H        -3.627008        -4.012799        -2.376520
 H        -3.465577        -2.422200        -2.989419
 H        -2.057767        -3.188059        -2.203951
