19
Iteration:   977
 C         1.465073         0.102876        -0.281539
 C         0.053407        -0.152872        -0.052012
 C        -1.145466        -0.155153         0.189578
 C        -2.624121        -0.178008         0.237779
 O        -3.361488         1.164147         0.213906
 C        -3.191750        -0.911017        -0.927633
 O        -4.524851        -1.491980        -0.778063
 C        -3.272898        -2.319693        -0.795705
 C        -3.150075        -3.247012        -1.968378
 H         2.075371        -0.573014         0.429945
 H         1.626884        -0.260115        -1.273858
 H         1.771784         1.159071        -0.141913
 H        -2.813443        -0.671095         1.172481
 H        -2.940079         1.550221         1.074254
 H        -3.071904        -0.371002        -1.886072
 H        -3.256902        -2.756619         0.204493
 H        -3.647444        -4.231966        -1.888001
 H        -3.264437        -2.636692        -2.883171
 H        -2.029165        -3.507520        -1.906922
