19
Iteration:  2524charge 0 multiplicity 1
 C         1.396040         0.027616        -0.462584
 C        -0.028385        -0.176316        -0.189670
 C        -1.189483        -0.178384         0.328003
 C        -2.620941        -0.265586         0.480660
 O        -3.302740         1.110025         0.690264
 C        -3.194400        -0.853372        -0.859813
 O        -4.370183        -1.591409        -0.554587
 C        -3.157473        -2.290163        -1.137104
 C        -3.308376        -2.982003        -2.445686
 H         2.007535        -0.876861        -0.000860
 H         1.543937        -0.018911        -1.504776
 H         1.721776         0.920847        -0.049978
 H        -2.884812        -0.923550         1.383234
 H        -2.784559         1.942530         0.682832
 H        -3.131737        -0.208599        -1.748553
 H        -2.573061        -2.886926        -0.442487
 H        -3.750285        -3.964953        -2.401716
 H        -3.936266        -2.357380        -3.068536
 H        -2.323157        -3.187640        -2.854972
