19
Iteration:   799charge 0 multiplicity 1
 C         1.557443         0.325186         0.093322
 C         0.085619         0.315194         0.049431
 C        -1.066340        -0.072596         0.044720
 C        -2.502007        -0.225997         0.141350
 O        -3.001859         1.220042         0.236916
 C        -3.185375        -1.091581        -1.056695
 O        -4.469426        -1.577090        -0.621382
 C        -3.527619        -2.558137        -0.877615
 C        -3.598967        -3.455786        -2.099590
 H         1.767546        -0.094456        -0.851845
 H         2.006332         1.378356         0.183384
 H         1.781066        -0.216053         0.973949
 H        -2.921600        -0.750809         0.962801
 H        -3.127404         1.555144        -0.738610
 H        -3.108070        -0.648990        -2.083394
 H        -3.285508        -3.166097         0.034236
 H        -4.306251        -4.245205        -2.049119
 H        -3.902696        -2.914335        -2.966322
 H        -2.615274        -3.890326        -2.139123
