19
Iteration:  3219charge 0 multiplicity 1
 C         1.374298         0.018340        -0.398427
 C         0.032152        -0.283865        -0.149673
 C        -1.135830        -0.210882         0.135716
 C        -2.636559        -0.297371         0.467545
 O        -3.177388         0.924167         0.657041
 C        -3.313844        -0.913328        -0.706049
 O        -4.444044        -1.726754        -0.473668
 C        -3.182618        -2.279157        -1.112336
 C        -3.289589        -2.482723        -2.582411
 H         1.798908         1.121125        -0.062966
 H         2.078659        -0.669323         0.090080
 H         1.491708         0.063600        -1.471972
 H        -2.843354        -1.029293         1.283967
 H        -2.795521         1.665647         1.120263
 H        -3.361523        -0.301316        -1.590996
 H        -2.466446        -2.992221        -0.634988
 H        -3.775725        -3.551909        -2.754736
 H        -4.097165        -1.763555        -2.848858
 H        -2.373941        -2.213692        -3.184415
