19
Iteration:    75charge 0 multiplicity 1
 C         1.502072         0.237994        -0.129858
 C         0.093436         0.129277         0.114842
 C        -1.097567        -0.018329         0.134406
 C        -2.564914        -0.144377         0.045761
 O        -3.233427         1.023204         0.011314
 C        -3.177903        -0.984787        -1.027318
 O        -4.522530        -1.456241        -0.846404
 C        -3.470132        -2.378971        -0.651331
 C        -3.323925        -3.491889        -1.711793
 H         1.982139         0.491549         0.872312
 H         2.019851        -0.816223        -0.171280
 H         1.727873         0.864149        -0.991454
 H        -2.792532        -0.571334         1.057783
 H        -2.687007         1.754101        -0.405934
 H        -2.840564        -0.701988        -2.003625
 H        -3.226351        -2.673672         0.343174
 H        -4.084674        -4.314944        -1.676711
 H        -3.279628        -3.165494        -2.753631
 H        -2.375355        -3.994920        -1.508894
