19
Iteration:  2709
 C         1.459003         0.282446        -0.282819
 C         0.116273         0.017806         0.086860
 C        -1.026917        -0.362535         0.137777
 C        -2.528081        -0.293653         0.335446
 O        -3.035435         0.971571         0.714336
 C        -3.311541        -0.936125        -0.802504
 O        -4.481371        -1.616918        -0.591031
 C        -3.398320        -2.371211        -1.161269
 C        -3.501178        -2.916781        -2.556094
 H         1.667312         1.409435         0.019228
 H         2.229001        -0.302377         0.178908
 H         1.400172         0.200205        -1.324914
 H        -2.706590        -0.828253         1.300821
 H        -2.730830         1.629289         0.063138
 H        -3.255752        -0.144796        -1.594690
 H        -3.248327        -3.009321        -0.366073
 H        -4.132013        -3.885809        -2.428908
 H        -4.166918        -2.258625        -3.098272
 H        -2.599238        -3.414810        -3.078099
