19
Iteration:   523charge 0 multiplicity 1
 C         1.375685        -0.171381        -0.172845
 C        -0.103108        -0.095251        -0.136639
 C        -1.261081         0.022709         0.148265
 C        -2.742045         0.010696         0.180385
 O        -3.312277         1.249525         0.148209
 C        -3.262676        -0.857536        -0.974534
 O        -4.436349        -1.633353        -0.652661
 C        -3.092194        -2.268139        -0.764890
 C        -2.957992        -3.354215        -1.897770
 H         1.886140         0.108852         0.751741
 H         1.696329        -1.258341        -0.248341
 H         1.785363         0.527170        -0.912286
 H        -3.109143        -0.590650         1.062330
 H        -2.632635         1.920168         0.044818
 H        -3.363535        -0.433496        -1.963367
 H        -2.952439        -2.533093         0.343785
 H        -3.407465        -4.339381        -1.760078
 H        -3.488616        -3.020975        -2.770954
 H        -2.033243        -3.550914        -2.354371
