19
Iteration:  1003
 C         1.447656        -0.007959        -0.391019
 C        -0.013295        -0.009723         0.029725
 C        -1.210156        -0.015103         0.220511
 C        -2.711890        -0.180940         0.292693
 O        -3.143913         1.277063         0.289417
 C        -3.196648        -0.930967        -0.895214
 O        -4.507037        -1.553282        -0.816313
 C        -3.335713        -2.373115        -0.815090
 C        -3.089708        -3.297681        -2.038347
 H         1.962767        -0.541593         0.454645
 H         1.551318        -0.781370        -1.179024
 H         1.952419         0.973967        -0.550644
 H        -2.901561        -0.662155         1.263535
 H        -3.993011         1.144694         0.784210
 H        -2.980103        -0.425650        -1.821862
 H        -3.161099        -2.798518         0.201074
 H        -3.521143        -4.265515        -1.989397
 H        -3.227121        -2.693060        -2.907170
 H        -2.061618        -3.609727        -1.959504
