19
Iteration:  3217charge 0 multiplicity 1
 C         1.387907         0.033119        -0.404003
 C         0.038433        -0.281534        -0.151288
 C        -1.140001        -0.213184         0.145564
 C        -2.624793        -0.281873         0.469482
 O        -3.193285         0.922085         0.647575
 C        -3.319093        -0.911419        -0.700448
 O        -4.426178        -1.736415        -0.482663
 C        -3.185284        -2.282456        -1.132612
 C        -3.305022        -2.475838        -2.569448
 H         1.813305         1.060177        -0.046785
 H         2.078714        -0.731864         0.036141
 H         1.485008         0.008118        -1.395496
 H        -2.889459        -1.044506         1.335177
 H        -2.750370         1.642071         1.149664
 H        -3.376165        -0.299100        -1.570908
 H        -2.556954        -3.024005        -0.620345
 H        -3.758608        -3.517730        -2.719360
 H        -4.080000        -1.779657        -2.853466
 H        -2.390421        -2.224653        -3.110549
