19
Iteration:  1385
 C         1.436173         0.311820        -0.157804
 C         0.054647         0.217098        -0.249293
 C        -1.102781        -0.119361         0.059258
 C        -2.517477        -0.310374         0.305431
 O        -3.022273         0.960187         0.482248
 C        -3.131170        -0.977530        -0.944989
 O        -4.497856        -1.376519        -0.808708
 C        -3.508996        -2.412573        -0.873018
 C        -3.509838        -3.383460        -2.082953
 H         1.930454        -0.576306        -0.834250
 H         1.894185         1.226574        -0.558988
 H         1.907099        -0.080451         0.855954
 H        -2.832460        -0.821498         1.285211
 H        -2.747269         1.262286         1.324190
 H        -2.745020        -0.412477        -1.803326
 H        -3.155567        -2.755685         0.170368
 H        -4.243966        -4.242578        -1.970651
 H        -3.919510        -2.810738        -2.985133
 H        -2.521671        -3.905426        -2.238648
