19
Iteration:   219charge 0 multiplicity 1
 C         1.531652         0.237002        -0.214153
 C         0.165851         0.032830         0.255233
 C        -1.076615        -0.001143         0.164006
 C        -2.565196        -0.127348         0.075766
 O        -3.330427         1.167982         0.028924
 C        -3.124683        -1.043039        -1.036721
 O        -4.541147        -1.470453        -0.834340
 C        -3.439380        -2.405772        -0.774997
 C        -3.364979        -3.557861        -1.767241
 H         1.692586         1.010786        -1.004955
 H         2.003364         0.782881         0.690065
 H         2.194330        -0.682223        -0.345631
 H        -2.830575        -0.574243         1.105287
 H        -2.626095         1.764079         0.301346
 H        -2.990723        -0.701625        -2.024806
 H        -3.311861        -2.754985         0.234431
 H        -4.160050        -4.242470        -1.590450
 H        -3.237136        -3.220941        -2.798258
 H        -2.427969        -4.029555        -1.408665
