19
Iteration:  2695charge 0 multiplicity 1
 C         1.552945         0.315914        -0.312362
 C         0.126047         0.002099         0.152042
 C        -1.073076        -0.292556         0.183924
 C        -2.520688        -0.343823         0.370770
 O        -3.018659         1.054457         0.756973
 C        -3.349891        -0.904242        -0.895751
 O        -4.574529        -1.626399        -0.562014
 C        -3.367219        -2.390976        -1.179364
 C        -3.546266        -3.037557        -2.571361
 H         1.905012         1.204306        -0.021872
 H         2.210727        -0.509299        -0.016271
 H         1.630826         0.381218        -1.428629
 H        -2.852494        -1.043875         1.228047
 H        -2.584902         1.657341         0.121229
 H        -3.531190        -0.272901        -1.719574
 H        -2.692994        -3.003777        -0.554249
 H        -4.046230        -4.016280        -2.684644
 H        -3.987841        -2.312419        -3.286859
 H        -2.531976        -3.007479        -2.990239
