19
Iteration:   386
 C         1.456610        -0.017601        -0.017517
 C        -0.091195        -0.043706        -0.224289
 C        -1.260681         0.028705         0.216741
 C        -2.761641         0.078955         0.289422
 O        -3.181107         1.359645        -0.037434
 C        -3.228861        -1.003818        -0.848589
 O        -4.392749        -1.790206        -0.617370
 C        -3.082477        -2.404540        -0.827915
 C        -3.263336        -3.392596        -2.044653
 H         1.970349        -1.012081         0.084529
 H         1.967092         0.392167        -0.893144
 H         1.579970         0.703058         0.821793
 H        -3.238498        -0.191617         1.254158
 H        -2.405895         1.948943        -0.156275
 H        -3.151713        -0.493548        -1.861586
 H        -2.722196        -2.841191         0.063918
 H        -3.909097        -3.986655        -1.410343
 H        -3.934351        -2.831445        -2.696582
 H        -2.306865        -3.622172        -2.547835
