19
Iteration:   682
 C         1.471907         0.139073        -0.208792
 C         0.093714         0.216576         0.171406
 C        -1.109747        -0.103487         0.138630
 C        -2.642377        -0.147870         0.275319
 O        -3.150982         1.203388         0.172120
 C        -3.227975        -0.981164        -0.938946
 O        -4.505216        -1.541698        -0.903223
 C        -3.421171        -2.428502        -0.834184
 C        -3.301215        -3.510185        -1.925087
 H         1.674190         0.998195        -0.933597
 H         2.006433         0.273088         0.672854
 H         1.829680        -0.813497        -0.605909
 H        -2.847414        -0.613601         1.242026
 H        -2.441070         1.865871         0.263053
 H        -3.242276        -0.626154        -1.939623
 H        -3.178603        -2.723167         0.129923
 H        -3.956095        -4.369263        -1.922001
 H        -3.622298        -2.924703        -2.813264
 H        -2.195351        -3.739238        -1.834123
