19
Iteration:  2660charge 0 multiplicity 1
 C         1.473262         0.218459        -0.228376
 C         0.079361        -0.018067        -0.094168
 C        -1.078040        -0.228522         0.104602
 C        -2.534883        -0.337045         0.352094
 O        -3.116725         0.994789         0.728372
 C        -3.326285        -0.893921        -0.865767
 O        -4.484835        -1.630674        -0.570302
 C        -3.248864        -2.338081        -1.113290
 C        -3.535377        -2.963296        -2.511030
 H         1.837438         0.716793         0.590223
 H         2.020889        -0.753100        -0.119597
 H         1.696132         0.655565        -1.248913
 H        -2.824340        -1.030627         1.195867
 H        -2.385385         1.617755         0.566052
 H        -3.420831        -0.061678        -1.570500
 H        -2.563586        -2.764787        -0.294166
 H        -3.919222        -3.988936        -2.541466
 H        -4.278411        -2.347669        -3.086204
 H        -2.598085        -3.031922        -3.021523
