19
Iteration:  3403
 C         1.445814         0.155243        -0.463413
 C         0.066086         0.123604         0.018127
 C        -1.100013        -0.158273         0.274192
 C        -2.483445        -0.453650         0.454207
 O        -3.110389         0.770399         0.891810
 C        -3.150605        -0.912254        -0.891636
 O        -4.467165        -1.487472        -0.717376
 C        -3.398577        -2.334847        -1.135662
 C        -3.538941        -2.829856        -2.591764
 H         1.586100        -0.047763        -1.603628
 H         1.860436         1.132827        -0.165836
 H         2.028871        -0.712687         0.132033
 H        -2.603383        -1.249610         1.172381
 H        -2.514721         1.163358         1.546455
 H        -3.255508        -0.225436        -1.736570
 H        -2.930969        -2.904223        -0.245930
 H        -4.424906        -3.494782        -2.773916
 H        -3.909759        -1.979497        -3.126080
 H        -2.785421        -3.174688        -3.227055
