19
Iteration:  2380charge 0 multiplicity 1
 C         1.394677        -0.012429        -0.500116
 C        -0.037659        -0.026798        -0.091936
 C        -1.188814        -0.122064         0.147375
 C        -2.575809        -0.235957         0.414294
 O        -3.313044         1.000149         0.805143
 C        -3.186427        -0.778662        -0.866023
 O        -4.414368        -1.568852        -0.678769
 C        -3.210579        -2.292504        -1.105390
 C        -3.240052        -3.079873        -2.313694
 H         1.394652        -0.450766        -1.524490
 H         1.828360         0.937104        -0.537839
 H         1.910443        -0.643307         0.173695
 H        -2.750851        -1.012688         1.288082
 H        -2.625887         1.718100         0.725324
 H        -3.095174        -0.034596        -1.668331
 H        -2.609350        -2.729013        -0.290587
 H        -3.925700        -3.905747        -2.138807
 H        -3.790823        -2.573022        -3.110734
 H        -2.276755        -3.506253        -2.425352
