19
Iteration:  1466
 C         1.502735         0.329702        -0.398384
 C         0.063930         0.041834        -0.031787
 C        -1.064722        -0.161473         0.214338
 C        -2.527604        -0.346471         0.323468
 O        -3.149386         1.020067         0.509465
 C        -3.046273        -1.007702        -0.912101
 O        -4.404933        -1.320636        -0.758597
 C        -3.503379        -2.445979        -0.889148
 C        -3.544680        -3.265932        -2.114345
 H         2.222859        -0.450356        -0.214717
 H         1.611367         0.611671        -1.482859
 H         1.825727         1.208671         0.108054
 H        -2.922784        -0.845983         1.228899
 H        -3.866422         0.809532        -0.053827
 H        -2.709218        -0.570941        -1.890471
 H        -3.508743        -2.967220         0.017998
 H        -4.454064        -3.932815        -2.224141
 H        -3.360914        -2.720393        -3.044596
 H        -2.628815        -3.931578        -2.040624
