19
Iteration:  2901charge 0 multiplicity 1
 C         1.490592         0.248999        -0.427159
 C         0.073602         0.023976        -0.064513
 C        -1.112968        -0.182078         0.140186
 C        -2.511085        -0.421587         0.471963
 O        -3.149956         0.768241         0.904626
 C        -3.110031        -0.961456        -0.886443
 O        -4.531134        -1.378725        -0.780442
 C        -3.515224        -2.403892        -1.041582
 C        -3.415786        -2.873048        -2.458487
 H         1.594236        -0.244332        -1.337017
 H         1.908265         1.290322        -0.370874
 H         2.290902        -0.241021         0.321427
 H        -2.551320        -1.045845         1.378263
 H        -3.158715         1.465482         0.224780
 H        -2.793378        -0.417201        -1.760083
 H        -3.300434        -3.096829        -0.134040
 H        -4.036055        -3.714834        -2.674407
 H        -3.537621        -2.040979        -3.171788
 H        -2.422128        -3.243927        -2.539851
