19
Iteration:   892charge 0 multiplicity 1
 C         1.529914         0.204636        -0.043312
 C         0.111284         0.151782         0.109693
 C        -1.099441        -0.043692        -0.008329
 C        -2.538068        -0.138957         0.217634
 O        -3.124156         1.134253         0.154688
 C        -3.226109        -0.996438        -1.010525
 O        -4.501880        -1.546534        -0.635618
 C        -3.414787        -2.453624        -0.868073
 C        -3.424689        -3.387758        -2.083074
 H         2.063288        -0.807966        -0.215886
 H         1.934041         0.780496        -0.853601
 H         1.929935         0.800042         0.840855
 H        -2.714737        -0.723069         1.187681
 H        -3.841915         1.130461         0.760465
 H        -3.104242        -0.492740        -1.949564
 H        -3.235687        -3.041106         0.023657
 H        -4.186705        -4.182939        -1.980724
 H        -3.731655        -2.903563        -3.005099
 H        -2.457258        -3.863302        -2.178091
