19
Iteration:   460charge 0 multiplicity 1
 C         1.464076        -0.174385        -0.095025
 C         0.005485        -0.038054        -0.017216
 C        -1.230431         0.021548         0.049162
 C        -2.710469         0.044180         0.161789
 O        -3.256689         1.345113         0.043268
 C        -3.304312        -0.913343        -0.864688
 O        -4.547523        -1.850163        -0.533346
 C        -3.198364        -2.332303        -0.775636
 C        -3.017298        -3.199344        -2.031690
 H         1.926691        -0.584455         0.829318
 H         1.870086        -0.727910        -1.023060
 H         1.776915         0.841435        -0.248562
 H        -2.904466        -0.370617         1.165143
 H        -3.091284         1.496018        -0.871798
 H        -3.410917        -0.422790        -1.885778
 H        -2.778919        -2.894171         0.084247
 H        -3.410152        -4.187814        -1.638282
 H        -3.476476        -2.702188        -2.900581
 H        -1.859173        -3.140772        -2.078459
