19
Iteration:  1251
 C         1.500972         0.076138        -0.169305
 C         0.052795         0.068811        -0.077098
 C        -1.163231        -0.017014         0.091272
 C        -2.599210        -0.177654         0.279455
 O        -3.168645         1.184567         0.276034
 C        -3.239684        -0.982551        -0.801498
 O        -4.464056        -1.687882        -0.539319
 C        -3.248700        -2.421116        -0.924021
 C        -3.464944        -3.180924        -2.239535
 H         1.735112         0.753419        -1.058075
 H         2.040462         0.411243         0.774084
 H         1.809574        -0.974855        -0.309794
 H        -2.969255        -0.557223         1.283157
 H        -2.493091         1.645219        -0.191946
 H        -3.197157        -0.403998        -1.765227
 H        -2.750904        -2.988158        -0.051619
 H        -4.023314        -4.116814        -2.113554
 H        -3.764081        -2.492702        -3.033250
 H        -2.433569        -3.489198        -2.514869
