19
Iteration:  2730
 C         1.473226         0.336898        -0.261168
 C         0.061282        -0.081079        -0.080747
 C        -1.140656        -0.273932         0.159046
 C        -2.550016        -0.448500         0.430840
 O        -3.060357         0.931730         0.661180
 C        -3.162790        -0.968596        -0.888924
 O        -4.494114        -1.567500        -0.606867
 C        -3.353219        -2.346362        -1.091653
 C        -3.575871        -2.845157        -2.455543
 H         1.619889         1.429121        -0.070488
 H         2.132754        -0.073242         0.470858
 H         1.823867         0.033392        -1.209518
 H        -2.642582        -1.067985         1.380989
 H        -2.699632         1.382518        -0.126408
 H        -2.935556        -0.211194        -1.659326
 H        -2.884202        -2.929119        -0.329389
 H        -4.293143        -3.696092        -2.708067
 H        -3.894260        -1.919723        -2.918979
 H        -2.489891        -3.148580        -2.712287
