19
Iteration:  4993charge 0 multiplicity 1
 C         1.661361         0.264375         0.007692
 C         0.195055        -0.101658        -0.122854
 C        -0.996133        -0.215807        -0.047273
 C        -2.410368        -0.546691         0.254426
 O        -3.072267         0.451571         1.218336
 C        -3.360260        -0.755069        -0.858319
 O        -4.493886        -1.683579        -0.541164
 C        -3.464435        -2.171858        -1.379377
 C        -3.793056        -2.356889        -2.854605
 H         2.031848         0.792335         0.867405
 H         2.162713        -0.693101        -0.005444
 H         1.980647         0.903325        -0.886124
 H        -2.335062        -1.370032         0.829113
 H        -2.772858         1.367595         1.125649
 H        -3.667939         0.039527        -1.476716
 H        -2.765306        -2.934277        -1.005491
 H        -4.060793        -3.496568        -2.886305
 H        -4.686118        -1.844842        -3.145384
 H        -2.920197        -2.355775        -3.508399
