19
Iteration:  1869
 C         1.518187        -0.190646        -0.329617
 C         0.002905         0.003834        -0.128680
 C        -1.178073         0.095950        -0.000258
 C        -2.607081        -0.104392         0.428145
 O        -3.292963         1.141274         0.526909
 C        -3.301793        -0.941270        -0.793752
 O        -4.460360        -1.808015        -0.476125
 C        -3.254889        -2.343275        -0.969492
 C        -3.213810        -2.959297        -2.417321
 H         1.531882        -0.708022        -1.312271
 H         1.991648         0.711575        -0.650434
 H         1.938388        -0.718434         0.525471
 H        -2.551705        -0.567117         1.399034
 H        -2.669887         1.825370         0.139145
 H        -3.611327        -0.306191        -1.656516
 H        -2.627036        -2.819772        -0.056633
 H        -3.550455        -3.943364        -2.151338
 H        -3.935961        -2.422340        -3.068122
 H        -2.165794        -2.996848        -2.722940
