19
Iteration:  1352
 C         1.599736         0.288489        -0.163515
 C         0.135666         0.083742        -0.136538
 C        -1.074479        -0.124508         0.066217
 C        -2.511061        -0.218213         0.208047
 O        -3.216466         0.984809         0.492747
 C        -3.185913        -0.944573        -0.962373
 O        -4.520698        -1.468955        -0.685944
 C        -3.463563        -2.417838        -0.874789
 C        -3.535922        -3.356530        -2.131575
 H         1.905269        -0.183576        -1.194346
 H         1.893329         1.335114        -0.040395
 H         2.124191        -0.289411         0.700169
 H        -2.579219        -0.622626         1.272615
 H        -2.662768         1.689954         0.156444
 H        -2.853690        -0.383343        -1.847680
 H        -3.113384        -2.828958         0.120067
 H        -4.211380        -4.250581        -2.014577
 H        -3.922215        -2.696613        -3.005720
 H        -2.475177        -3.630489        -2.407594
