19
Iteration:  4026charge 0 multiplicity 1
 C         1.497434         0.287050        -0.273119
 C         0.164191        -0.202137        -0.030619
 C        -1.020793        -0.325960         0.327204
 C        -2.524430        -0.471704         0.418101
 O        -3.082966         0.894926         0.748166
 C        -3.384967        -0.895538        -0.814617
 O        -4.417115        -1.722649        -0.470114
 C        -3.357345        -2.293412        -1.331051
 C        -3.617482        -2.499668        -2.767462
 H         1.897711         0.020895        -1.318833
 H         1.603994         1.335426        -0.204256
 H         1.986381        -0.241713         0.482774
 H        -2.777497        -1.245317         1.241489
 H        -2.451147         1.032860         1.488183
 H        -3.726200        -0.047249        -1.391974
 H        -2.662284        -2.970634        -0.875384
 H        -4.497871        -3.089271        -2.908015
 H        -3.724078        -1.563821        -3.310048
 H        -2.830514        -3.070542        -3.260853
