19
Iteration:  4765charge 0 multiplicity 1
 C         1.393474         0.193971        -0.538038
 C         0.008867        -0.164934        -0.175281
 C        -1.083502        -0.410134         0.287080
 C        -2.553225        -0.615905         0.627447
 O        -3.082788         0.504106         1.293934
 C        -3.247609        -0.764411        -0.757968
 O        -4.547073        -1.347693        -0.804002
 C        -3.355153        -2.077897        -1.331480
 C        -3.330143        -2.535653        -2.796714
 H         2.098830        -0.510979        -0.789461
 H         1.240489         0.647895        -1.493605
 H         1.741816         1.020434         0.150925
 H        -2.805104        -1.456578         1.234083
 H        -2.413306         1.188519         1.380261
 H        -3.147737         0.074510        -1.401404
 H        -3.078000        -2.904531        -0.636580
 H        -4.058873        -3.298936        -3.096737
 H        -3.228762        -1.657152        -3.410105
 H        -2.377646        -3.005389        -2.814756
