19
Iteration:  2213
 C         1.526204         0.350100        -0.122336
 C         0.150353         0.053163        -0.061925
 C        -1.048335        -0.254905         0.032098
 C        -2.603366        -0.276933         0.177139
 O        -3.027421         1.062231         0.586270
 C        -3.357349        -0.853938        -0.902613
 O        -4.475016        -1.712168        -0.517782
 C        -3.310179        -2.367615        -1.113185
 C        -3.627825        -3.111473        -2.312969
 H         1.700522         1.357563        -0.074470
 H         2.189871        -0.236001         0.571888
 H         1.876598        -0.008079        -1.119093
 H        -2.833322        -0.992044         1.063633
 H        -2.192588         1.492644         0.936798
 H        -3.600662        -0.305007        -1.826856
 H        -2.752651        -3.078826        -0.374985
 H        -4.250852        -3.993146        -2.035182
 H        -4.218548        -2.633874        -3.085108
 H        -2.739503        -3.546950        -2.786236
