19
Iteration:     3
 C         1.485300         0.142091        -0.059644
 C         0.038741         0.053393        -0.001716
 C        -1.184725         0.004354         0.085916
 C        -2.623556        -0.071436         0.119124
 O        -3.224140         1.249611        -0.025115
 C        -3.153839        -1.009825        -0.934313
 O        -4.474801        -1.535089        -0.776585
 C        -3.359680        -2.460261        -0.686156
 C        -3.287935        -3.492342        -1.754880
 H         1.863037        -0.498404         0.672615
 H         1.889365        -0.222048        -0.937423
 H         1.841384         1.170623         0.091148
 H        -3.032591        -0.529538         1.034904
 H        -2.724940         1.695032        -0.768380
 H        -2.889091        -0.735259        -1.987056
 H        -3.064498        -2.811337         0.359357
 H        -3.990019        -4.294039        -1.593271
 H        -3.504772        -3.091360        -2.759631
 H        -2.291950        -3.974711        -1.804576
