19
Iteration:   173charge 0 multiplicity 1
 C         1.491883         0.264881        -0.089416
 C         0.016281         0.183356        -0.053406
 C        -1.167543        -0.154267         0.086769
 C        -2.590119        -0.117242         0.157450
 O        -3.211138         1.131271         0.097179
 C        -3.019743        -1.097792        -0.896776
 O        -4.478353        -1.418555        -0.928667
 C        -3.478812        -2.404146        -0.693667
 C        -3.332759        -3.506451        -1.745981
 H         1.843699         1.302181        -0.344353
 H         2.033889         0.045503         0.897101
 H         1.841900        -0.424166        -0.826114
 H        -3.085377        -0.555013         1.086980
 H        -2.667440         1.747773        -0.474888
 H        -2.565509        -1.023000        -1.892846
 H        -3.481881        -2.966779         0.317393
 H        -4.217062        -4.175115        -1.537507
 H        -3.372226        -3.098701        -2.788777
 H        -2.442256        -4.143235        -1.616441
