19
Iteration:  4221charge 0 multiplicity 1
 C         1.500983         0.284513        -0.387242
 C         0.155402        -0.069522         0.053469
 C        -1.049118        -0.275057         0.242769
 C        -2.449481        -0.556523         0.495238
 O        -3.050134         0.612364         0.939537
 C        -3.217986        -0.814842        -0.848159
 O        -4.604823        -1.559823        -0.756492
 C        -3.408234        -2.210931        -1.263897
 C        -3.581654        -2.596056        -2.661984
 H         2.320227        -0.114127         0.203057
 H         1.566273         0.065362        -1.442755
 H         1.521216         1.342978        -0.381450
 H        -2.621812        -1.361300         1.239031
 H        -2.603571         1.004747         1.706969
 H        -3.236194         0.085708        -1.437478
 H        -3.110580        -2.943532        -0.461194
 H        -4.512139        -2.969110        -2.997738
 H        -3.478159        -1.641197        -3.176394
 H        -2.871813        -3.350009        -3.013408
