19
Iteration:  1119charge 0 multiplicity 1
 C         1.500402        -0.232023        -0.363204
 C        -0.012065        -0.034861        -0.030882
 C        -1.231271         0.057340         0.133419
 C        -2.642931        -0.075331         0.275336
 O        -3.272654         1.272371         0.386014
 C        -3.284631        -0.901167        -0.873044
 O        -4.457753        -1.640691        -0.720546
 C        -3.260684        -2.361503        -0.826729
 C        -3.056622        -3.180512        -2.080330
 H         2.064502         0.600476         0.090382
 H         1.817882        -1.169057        -0.040711
 H         1.468432        -0.076585        -1.417061
 H        -2.844766        -0.494791         1.292010
 H        -4.210911         1.247120         0.075837
 H        -3.236471        -0.347342        -1.845355
 H        -2.749176        -2.757281         0.089470
 H        -3.540325        -4.172068        -1.877056
 H        -3.382983        -2.612048        -2.963762
 H        -1.957270        -3.457211        -2.151184
