19
Iteration:   856
 C         1.575929         0.310290         0.019304
 C         0.154927        -0.003559         0.039134
 C        -1.044399        -0.048962         0.064776
 C        -2.503413        -0.140177         0.068743
 O        -3.323252         0.995351         0.080195
 C        -3.106846        -0.960905        -1.009310
 O        -4.449620        -1.500743        -0.579451
 C        -3.359816        -2.503808        -0.805374
 C        -3.582672        -3.311112        -2.058032
 H         2.303870        -0.485498        -0.247925
 H         1.567173         1.275930        -0.445871
 H         1.811778         0.385397         1.095097
 H        -2.744261        -0.747288         0.933096
 H        -3.222376         1.769742         0.611817
 H        -3.099225        -0.673747        -2.074563
 H        -3.177155        -3.034472         0.109194
 H        -4.306975        -3.987393        -1.892032
 H        -3.817968        -2.637526        -2.854242
 H        -2.659846        -3.760159        -2.376268
