19
Iteration:   306
 C         1.600686         0.191785        -0.000200
 C         0.107905        -0.034504         0.072238
 C        -1.148228        -0.055988        -0.104764
 C        -2.602620        -0.109580         0.150847
 O        -3.274367         1.203450        -0.068779
 C        -3.216919        -0.947980        -0.903470
 O        -4.569234        -1.621551        -0.627762
 C        -3.422732        -2.414296        -0.754231
 C        -3.221959        -3.372400        -1.912150
 H         1.935201        -0.337065        -0.884763
 H         1.796641         1.248462        -0.252051
 H         2.067311        -0.313386         0.705016
 H        -2.918770        -0.426673         1.148359
 H        -2.958067         1.797408         0.661739
 H        -3.164378        -0.583814        -1.908739
 H        -3.151429        -2.739450         0.234911
 H        -3.663743        -4.335342        -1.738861
 H        -3.565872        -2.948852        -2.871808
 H        -2.151387        -3.632268        -1.833060
