19
Iteration:  3156
 C         1.392413        -0.110051        -0.386811
 C         0.063442         0.028643         0.051482
 C        -1.134790        -0.052385         0.188212
 C        -2.527843        -0.277880         0.497810
 O        -3.134879         1.008615         0.717655
 C        -3.349911        -0.838124        -0.849268
 O        -4.355858        -1.897700        -0.454970
 C        -3.223304        -2.212944        -1.286840
 C        -3.471223        -2.721373        -2.653341
 H         2.194446         0.290368         0.258696
 H         1.556930        -1.156998        -0.574371
 H         1.497885         0.599811        -1.397694
 H        -2.876548        -1.058433         1.257436
 H        -2.887353         1.149282         1.653375
 H        -3.593725        -0.000929        -1.570120
 H        -2.382869        -2.728472        -0.671113
 H        -4.158106        -3.612897        -2.709383
 H        -3.974949        -1.898450        -3.171922
 H        -2.612312        -3.037469        -3.278816
