19
Iteration:  1327
 C         1.581266         0.245410        -0.175590
 C         0.195584        -0.057178         0.050484
 C        -1.029602        -0.028584        -0.014063
 C        -2.546570        -0.237234         0.158354
 O        -3.212101         1.066801         0.455161
 C        -3.242368        -1.014585        -0.976285
 O        -4.483139        -1.534356        -0.604104
 C        -3.422245        -2.454269        -0.895575
 C        -3.516484        -3.175515        -2.126596
 H         1.620833         0.147834        -1.330998
 H         1.763773         1.361225         0.144557
 H         2.362280        -0.334626         0.351332
 H        -2.623895        -0.618369         1.189141
 H        -3.651867         1.347225        -0.433674
 H        -3.055497        -0.451171        -1.930739
 H        -3.015490        -2.973490         0.045110
 H        -4.182654        -3.967242        -1.841418
 H        -3.869637        -2.627697        -2.995539
 H        -2.565152        -3.620004        -2.343021
