19
Iteration:  4044charge 0 multiplicity 1
 C         1.457146         0.221679        -0.167975
 C         0.087857        -0.150641        -0.066317
 C        -1.082346        -0.277889         0.232529
 C        -2.475861        -0.408678         0.397109
 O        -2.996391         0.845630         0.788531
 C        -3.256311        -0.915986        -0.818295
 O        -4.417442        -1.789225        -0.465081
 C        -3.362925        -2.208914        -1.305974
 C        -3.711850        -2.541318        -2.803317
 H         1.925615         0.002076        -1.167286
 H         1.471110         1.353781        -0.418095
 H         2.197312         0.104822         0.716770
 H        -2.773312        -1.191389         1.064296
 H        -2.685849         1.160139         1.668476
 H        -3.314979        -0.048215        -1.601467
 H        -2.795705        -3.035558        -0.685646
 H        -4.624658        -3.167160        -2.851254
 H        -3.843865        -1.587681        -3.417211
 H        -2.903933        -3.016316        -3.363054
