19
Iteration:  3992
 C         1.399725         0.201828        -0.356699
 C         0.103352        -0.101388         0.095042
 C        -1.085899        -0.333181         0.100495
 C        -2.521985        -0.442439         0.474022
 O        -3.072602         0.877505         0.826338
 C        -3.332699        -0.964021        -0.674975
 O        -4.462304        -1.695678        -0.601425
 C        -3.307423        -2.257820        -1.308713
 C        -3.492376        -2.500116        -2.741026
 H         1.559698        -0.058628        -1.494145
 H         1.917373         1.059994         0.006351
 H         2.029131        -0.572761         0.063980
 H        -2.667896        -1.064440         1.460265
 H        -2.410771         1.437019         1.269669
 H        -3.448938        -0.055538        -1.336410
 H        -2.841541        -2.998769        -0.641515
 H        -4.232247        -3.265108        -2.746242
 H        -4.009065        -1.670664        -3.281801
 H        -2.596995        -2.852511        -3.225077
