19
Iteration:  1916
 C         1.402111        -0.087139        -0.514772
 C         0.041173        -0.046307         0.011025
 C        -1.178034        -0.108383         0.174603
 C        -2.695746        -0.206909         0.341896
 O        -3.280412         1.117897         0.486757
 C        -3.220914        -0.771340        -0.916553
 O        -4.385527        -1.676218        -0.547470
 C        -3.139317        -2.276303        -0.967318
 C        -3.288624        -3.088678        -2.253871
 H         1.519093        -0.905890        -1.139264
 H         1.494794         0.777111        -1.243379
 H         1.995038        -0.015104         0.391769
 H        -2.934569        -0.914295         1.168845
 H        -3.030950         1.396964         1.365550
 H        -3.207582         0.015910        -1.724672
 H        -2.495434        -2.740735        -0.176861
 H        -4.095431        -3.792528        -2.172393
 H        -3.460968        -2.238072        -2.909135
 H        -2.287495        -3.510191        -2.369833
