19
Iteration:  3039charge 0 multiplicity 1
 C         1.501295         0.068432        -0.335407
 C         0.079403         0.042793        -0.039034
 C        -1.140068        -0.122858         0.029741
 C        -2.592962        -0.325424         0.381466
 O        -3.031092         0.913586         0.728967
 C        -3.379948        -0.905694        -0.740035
 O        -4.549279        -1.733812        -0.562999
 C        -3.380480        -2.304731        -1.111046
 C        -3.370798        -2.730423        -2.576896
 H         1.963066        -0.945068         0.157515
 H         1.598932         0.034737        -1.455885
 H         2.063559         0.908826         0.091635
 H        -2.556853        -0.963845         1.239262
 H        -2.536728         1.099689         1.553070
 H        -3.429810        -0.125894        -1.552556
 H        -2.732219        -2.918042        -0.491916
 H        -3.460918        -3.783738        -2.695854
 H        -4.041980        -2.150105        -3.245759
 H        -2.295464        -2.586148        -2.834744
