19
Iteration:   593charge 0 multiplicity 1
 C         1.403104        -0.122912        -0.215466
 C        -0.059437        -0.037875        -0.183800
 C        -1.249763         0.086142         0.210550
 C        -2.750468        -0.023968         0.297820
 O        -3.292860         1.234895         0.058499
 C        -3.064857        -0.933332        -0.878859
 O        -4.402841        -1.575957        -0.767445
 C        -3.341388        -2.417340        -0.726796
 C        -3.050096        -3.314449        -1.903589
 H         1.894358         0.817013         0.077957
 H         1.820089        -0.945636         0.356143
 H         1.737927        -0.141661        -1.233704
 H        -3.061336        -0.602019         1.138659
 H        -3.286404         1.671334         0.905177
 H        -2.656152        -0.457430        -1.791599
 H        -3.043564        -2.803649         0.218503
 H        -3.783534        -4.123127        -2.015500
 H        -3.219489        -2.811392        -2.885804
 H        -2.033149        -3.849771        -1.926942
