19
Iteration:  4269
 C         1.348478         0.282055        -0.494916
 C         0.014743        -0.116309        -0.054326
 C        -1.120218        -0.446848         0.282570
 C        -2.465510        -0.613997         0.634267
 O        -3.101586         0.739003         0.963066
 C        -3.116981        -0.932047        -0.677498
 O        -4.466495        -1.416000        -0.734782
 C        -3.420547        -2.203016        -1.253048
 C        -3.448005        -2.531228        -2.803576
 H         1.882684         0.222452         0.482730
 H         1.673853        -0.439117        -1.266855
 H         1.415262         1.229867        -1.045282
 H        -2.650499        -1.260650         1.443537
 H        -2.479491         1.272871         1.485750
 H        -2.918285        -0.096419        -1.389431
 H        -3.082478        -2.988976        -0.553570
 H        -4.187644        -3.357503        -3.004138
 H        -3.556819        -1.750442        -3.568911
 H        -2.619951        -3.157152        -3.102377
