19
Iteration:   443charge 0 multiplicity 1
 C         1.434862        -0.106961        -0.133119
 C         0.067085        -0.024823         0.201672
 C        -1.181102        -0.033122         0.015813
 C        -2.634845        -0.031175         0.083695
 O        -3.287248         1.262320        -0.022131
 C        -3.413556        -0.923520        -0.892622
 O        -4.509622        -1.748982        -0.434631
 C        -3.273357        -2.342751        -0.803195
 C        -2.970679        -3.193680        -2.034253
 H         1.835931        -0.799316         0.620734
 H         1.453041        -0.440797        -1.139766
 H         2.146501         0.777011        -0.250886
 H        -2.905755        -0.399919         1.097260
 H        -3.172337         1.800482        -0.807800
 H        -3.657346        -0.482085        -1.837045
 H        -2.726722        -2.463044         0.132500
 H        -3.382049        -4.168562        -2.039095
 H        -3.388895        -2.647947        -2.900553
 H        -1.911626        -3.394410        -2.106589
