19
Iteration:  1992
 C         1.463436         0.138126        -0.583368
 C         0.060979         0.011851        -0.000104
 C        -1.161183        -0.226698         0.164456
 C        -2.569063        -0.309774         0.453363
 O        -3.127239         1.034167         0.532943
 C        -3.224686        -0.918966        -0.799998
 O        -4.546248        -1.437374        -0.872147
 C        -3.520175        -2.407926        -0.861968
 C        -3.163037        -3.049536        -2.152357
 H         2.088351        -0.757332        -0.389744
 H         1.416274         0.287762        -1.737369
 H         1.938298         1.032395        -0.065084
 H        -2.736049        -1.037079         1.217773
 H        -3.375889         1.373475         1.444001
 H        -2.836787        -0.516309        -1.782415
 H        -3.302341        -3.098114         0.119455
 H        -3.615956        -4.043579        -2.167306
 H        -3.494635        -2.303714        -2.950984
 H        -2.055300        -3.207056        -2.188307
