19
Iteration:  3590
 C         1.531627         0.222995        -0.206179
 C         0.140694        -0.019882        -0.095380
 C        -1.014222        -0.072310         0.190768
 C        -2.426512        -0.449846         0.396413
 O        -3.208102         0.731549         0.884681
 C        -3.207348        -0.917166        -0.926997
 O        -4.367247        -1.541005        -0.508357
 C        -3.352832        -2.285447        -1.277591
 C        -3.809733        -2.804527        -2.666009
 H         2.102405        -0.514081         0.266531
 H         1.786816         0.123066        -1.272264
 H         1.917819         1.245524         0.264946
 H        -2.383343        -1.375618         1.118136
 H        -2.661592         1.337129         0.355322
 H        -3.511372        -0.032598        -1.590740
 H        -2.813122        -3.042718        -0.592188
 H        -4.595357        -3.581093        -2.609804
 H        -4.158442        -1.894039        -3.247731
 H        -2.922536        -3.290821        -2.957615
