19
Iteration:   164
 C         1.420988         0.264995        -0.049342
 C        -0.010151         0.215122        -0.178161
 C        -1.096539        -0.173040         0.151126
 C        -2.618125        -0.138066         0.212465
 O        -3.186459         1.183957         0.108474
 C        -3.039644        -1.089599        -0.934856
 O        -4.414560        -1.412778        -0.976238
 C        -3.471694        -2.503843        -0.614863
 C        -3.346411        -3.531889        -1.783860
 H         1.956185         1.248153        -0.211390
 H         1.768206        -0.128098         0.992851
 H         1.806654        -0.330533        -0.932968
 H        -2.860992        -0.455476         1.220777
 H        -2.739118         1.693515        -0.640970
 H        -2.746419        -0.885251        -1.932784
 H        -3.500026        -2.632981         0.425512
 H        -4.244274        -4.108788        -1.586089
 H        -3.538187        -2.993845        -2.708694
 H        -2.456252        -4.139808        -1.677167
