19
Iteration:  2002
 C         1.446316         0.186304        -0.539727
 C         0.122656         0.027940        -0.020667
 C        -1.032628        -0.251449         0.158526
 C        -2.635427        -0.310326         0.407952
 O        -3.146932         0.963758         0.523075
 C        -3.272614        -0.905523        -0.777447
 O        -4.571444        -1.437267        -0.881200
 C        -3.505531        -2.357579        -0.890831
 C        -3.172015        -3.073658        -2.087741
 H         2.072578        -0.720560        -0.222619
 H         1.387410         0.148417        -1.687440
 H         2.146572         1.015428        -0.396761
 H        -2.800543        -0.801274         1.328972
 H        -3.169237         1.134245         1.488023
 H        -2.868251        -0.270676        -1.627611
 H        -3.636591        -2.977932         0.123899
 H        -3.645181        -4.006837        -2.370013
 H        -3.462865        -2.428845        -3.003928
 H        -2.053835        -3.182563        -2.190153
