19
Iteration:  2124
 C         1.585892         0.239207        -0.246868
 C         0.205701         0.133198         0.086653
 C        -1.003719        -0.004637        -0.033613
 C        -2.467883        -0.286958         0.321741
 O        -3.183511         0.906836         0.555523
 C        -3.205087        -1.030903        -0.882528
 O        -4.559969        -1.496843        -0.506051
 C        -3.509309        -2.417129        -1.006257
 C        -3.531545        -3.122927        -2.358343
 H         2.174492         0.617345         0.511879
 H         2.092901        -0.751491        -0.507985
 H         1.698336         0.898485        -1.115825
 H        -2.657504        -1.076070         0.992612
 H        -3.567457         1.149759        -0.343787
 H        -3.215249        -0.466001        -1.796855
 H        -3.052936        -3.101985        -0.172564
 H        -4.204164        -3.971475        -2.501145
 H        -3.877156        -2.433352        -3.132477
 H        -2.491877        -3.420021        -2.561018
