19
Iteration:  2914charge 0 multiplicity 1
 C         1.527842         0.220068        -0.461121
 C         0.109007         0.104846         0.009200
 C        -1.077611        -0.132828         0.217228
 C        -2.504246        -0.566319         0.448520
 O        -3.136346         0.845731         0.860879
 C        -3.189007        -0.981036        -0.776659
 O        -4.597708        -1.418479        -0.750723
 C        -3.508041        -2.303861        -1.113770
 C        -3.368124        -2.929789        -2.492088
 H         1.759902        -0.272533        -1.384981
 H         1.651347         1.264193        -0.801850
 H         2.219275        -0.273077         0.355549
 H        -2.748163        -1.251602         1.192556
 H        -2.829518         1.346640         0.081669
 H        -2.878593        -0.346158        -1.599533
 H        -3.348435        -3.098875        -0.259252
 H        -4.158476        -3.584470        -2.799321
 H        -3.484763        -2.118519        -3.139211
 H        -2.429131        -3.317420        -2.646535
