19
Iteration:  4158charge 0 multiplicity 1
 C         1.575723         0.213906        -0.136269
 C         0.109217         0.009935        -0.155103
 C        -1.068147        -0.094235         0.079559
 C        -2.414132        -0.544310         0.365338
 O        -3.072032         0.585491         1.051203
 C        -3.282039        -0.866031        -0.926848
 O        -4.579196        -1.489737        -0.666308
 C        -3.322511        -2.223497        -1.282996
 C        -3.698549        -2.695376        -2.648288
 H         2.091563        -0.797995         0.242083
 H         2.053419         0.603556        -1.032978
 H         1.771154         0.883708         0.642915
 H        -2.371443        -1.483583         0.944582
 H        -2.333144         1.088645         1.464346
 H        -3.389508        -0.163246        -1.706406
 H        -2.913200        -2.959803        -0.567226
 H        -4.175686        -3.657508        -2.670405
 H        -4.353803        -1.941536        -2.957864
 H        -2.865101        -2.601117        -3.334946
