19
Iteration:  1965charge 0 multiplicity 1
 C         1.371460         0.119605        -0.521949
 C        -0.054364        -0.160879        -0.197499
 C        -1.200112        -0.138816         0.317624
 C        -2.588018        -0.169910         0.415199
 O        -3.134794         1.126376         0.558525
 C        -3.150121        -0.892848        -0.791244
 O        -4.420409        -1.440605        -0.740158
 C        -3.390448        -2.444525        -0.956163
 C        -3.191188        -3.158585        -2.249813
 H         1.862896        -0.892444        -0.630151
 H         1.423562         0.500727        -1.497562
 H         1.757944         0.753543         0.278421
 H        -2.891697        -0.945535         1.170419
 H        -3.410083         1.351225         1.495374
 H        -2.866081        -0.470370        -1.749515
 H        -3.229978        -3.106475        -0.185833
 H        -3.804091        -4.086814        -2.161871
 H        -3.517633        -2.429924        -2.960333
 H        -2.115187        -3.366424        -2.330803
