19
Iteration:  1585charge 0 multiplicity 1
 C         1.489644         0.183126        -0.340565
 C         0.026328         0.000154        -0.175529
 C        -1.128598        -0.117529        -0.016198
 C        -2.581381        -0.210553         0.316002
 O        -3.164567         0.979666         0.746400
 C        -3.124657        -0.907269        -0.949733
 O        -4.519019        -1.434846        -0.745840
 C        -3.430161        -2.382905        -0.914286
 C        -3.351094        -3.256362        -2.081387
 H         1.925553         0.364166         0.672743
 H         2.032758        -0.758284        -0.570618
 H         1.951380         0.869556        -1.071293
 H        -2.740074        -0.975828         1.043538
 H        -3.120947         1.646458        -0.026442
 H        -3.047944        -0.375474        -1.889529
 H        -3.152913        -2.792154        -0.027990
 H        -4.062284        -4.087597        -2.215483
 H        -3.477048        -2.688654        -3.006523
 H        -2.286803        -3.499764        -2.252978
