19
Iteration:   836
 C         1.597580         0.368226         0.112622
 C         0.175128         0.051544        -0.038863
 C        -1.055429        -0.039916         0.009809
 C        -2.544835        -0.244854         0.234852
 O        -3.340076         1.099444         0.101352
 C        -3.124998        -1.015595        -0.990176
 O        -4.452394        -1.530390        -0.654785
 C        -3.348862        -2.546489        -0.873073
 C        -3.639264        -3.315842        -2.045415
 H         2.272694        -0.379869        -0.512763
 H         1.958420         1.281881        -0.265475
 H         2.125567         0.155946         1.124304
 H        -2.737429        -0.573198         1.336707
 H        -2.611766         1.794555        -0.104628
 H        -2.910489        -0.562134        -1.966727
 H        -3.004587        -3.054117         0.006536
 H        -4.330111        -4.048315        -1.655646
 H        -4.057113        -2.744932        -2.872012
 H        -2.852634        -3.937348        -2.450600
