19
Iteration:  4456
 C         1.524207        -0.064835        -0.425984
 C         0.065391        -0.066005        -0.022210
 C        -1.111205        -0.234209         0.212982
 C        -2.582205        -0.406863         0.461429
 O        -3.195768         0.793458         1.015296
 C        -3.388424        -0.781611        -0.767632
 O        -4.327286        -1.861383        -0.471710
 C        -3.269502        -2.166688        -1.367185
 C        -3.494776        -2.301741        -2.869095
 H         1.755683         0.939837        -0.792793
 H         2.338768        -0.359725         0.262820
 H         1.638863        -0.762136        -1.291088
 H        -2.745592        -1.265461         1.223708
 H        -2.713907         1.056326         1.826074
 H        -3.895124         0.074753        -1.351665
 H        -2.577764        -2.994785        -0.950846
 H        -3.854184        -3.368683        -2.993027
 H        -4.176110        -1.503129        -3.414405
 H        -2.431120        -2.364705        -3.142735
