19
Iteration:  2626charge 0 multiplicity 1
 C         1.440144         0.083706        -0.194796
 C         0.112581        -0.055929        -0.251077
 C        -1.102167        -0.115283         0.010298
 C        -2.527939        -0.316815         0.330720
 O        -3.264273         0.935282         0.679046
 C        -3.258312        -0.895549        -0.855238
 O        -4.452160        -1.636609        -0.513659
 C        -3.288858        -2.355580        -1.017117
 C        -3.438894        -2.847111        -2.465153
 H         1.741630         0.429886         0.786466
 H         1.911524        -0.857270        -0.573337
 H         1.871683         0.918054        -0.815087
 H        -2.533536        -0.932524         1.283327
 H        -2.648644         1.569602         1.091320
 H        -3.427743        -0.167448        -1.729712
 H        -2.548568        -2.908601        -0.271487
 H        -3.933220        -3.812079        -2.474219
 H        -3.907788        -2.030868        -3.043171
 H        -2.416872        -2.848633        -2.870597
