19
Iteration:   565
 C         1.383861        -0.204757        -0.248409
 C         0.032508         0.033548         0.150277
 C        -1.207939         0.114100         0.059442
 C        -2.677726         0.013539         0.163955
 O        -3.316610         1.252770         0.117136
 C        -3.290660        -0.910830        -0.926477
 O        -4.530571        -1.572564        -0.722002
 C        -3.271041        -2.425789        -0.760467
 C        -2.920637        -3.382965        -1.931019
 H         2.085019         0.561051         0.110788
 H         1.814622        -1.232748        -0.176093
 H         1.396033         0.113247        -1.356869
 H        -2.812875        -0.610696         1.145982
 H        -2.991274         1.779074         0.811401
 H        -2.991253        -0.508875        -1.875472
 H        -2.890474        -2.741452         0.249774
 H        -3.555179        -4.293930        -1.919093
 H        -3.275533        -2.901926        -2.863131
 H        -1.927571        -3.754584        -1.833549
