19
Iteration:   753charge 0 multiplicity 1
 C         1.555563         0.429428         0.025135
 C         0.128722        -0.110096         0.022740
 C        -1.099487        -0.144077        -0.052783
 C        -2.550838        -0.281987         0.173089
 O        -3.160302         1.128575         0.153972
 C        -3.183011        -0.990371        -0.943600
 O        -4.551015        -1.501617        -0.704605
 C        -3.462554        -2.423038        -0.827342
 C        -3.422714        -3.354081        -1.982986
 H         1.954271         0.704313        -0.935502
 H         1.486194         1.320303         0.732418
 H         2.116925        -0.273415         0.622354
 H        -2.593767        -0.630507         1.170668
 H        -2.944503         1.737639        -0.592142
 H        -2.945602        -0.405535        -1.860354
 H        -2.894603        -2.988999         0.016490
 H        -4.260787        -4.128480        -1.813961
 H        -3.770830        -2.885732        -2.912332
 H        -2.467121        -3.871731        -1.885985
