19
Iteration:  3631
 C         1.631984         0.107705        -0.219762
 C         0.125560         0.169638        -0.045182
 C        -1.074420        -0.127371         0.000663
 C        -2.430099        -0.406390         0.397978
 O        -3.161738         0.805129         1.006839
 C        -3.297251        -0.905676        -0.797258
 O        -4.456898        -1.657330        -0.622134
 C        -3.359747        -2.359744        -1.291417
 C        -3.686290        -2.743258        -2.605038
 H         2.162937        -0.535477         0.527249
 H         1.861711        -0.393317        -1.183119
 H         1.970701         1.221939        -0.429709
 H        -2.509906        -1.107881         1.241729
 H        -3.180147         1.570250         0.408294
 H        -3.108529        -0.164196        -1.653152
 H        -2.963747        -3.154347        -0.587734
 H        -4.530403        -3.511038        -2.726744
 H        -4.006477        -1.796149        -3.133758
 H        -2.820487        -3.204460        -3.158908
