19
Iteration:   889charge 0 multiplicity 1
 C         1.543906         0.204832        -0.034584
 C         0.095504         0.139662         0.116880
 C        -1.110037        -0.029930        -0.019163
 C        -2.537697        -0.152655         0.211606
 O        -3.130624         1.105191         0.140509
 C        -3.202993        -0.978803        -1.013347
 O        -4.500214        -1.532294        -0.616048
 C        -3.413502        -2.465495        -0.865772
 C        -3.448429        -3.385778        -2.079405
 H         2.128835        -0.705273        -0.229444
 H         1.890978         0.805434        -0.840574
 H         1.955026         0.751118         0.816591
 H        -2.737819        -0.732496         1.069563
 H        -3.858013         1.274436         0.821808
 H        -3.081677        -0.432289        -1.965008
 H        -3.205189        -3.069310         0.000981
 H        -4.073104        -4.200689        -2.011707
 H        -3.668371        -2.847574        -2.995048
 H        -2.484075        -3.862733        -2.149280
