19
Iteration:  3845
 C         1.313584        -0.157318        -0.616631
 C        -0.038551        -0.002571        -0.172603
 C        -1.149860        -0.089092         0.283619
 C        -2.547458        -0.473845         0.610066
 O        -3.222907         0.812513         1.085994
 C        -3.277535        -0.829924        -0.685664
 O        -4.439778        -1.588511        -0.742195
 C        -3.200934        -2.181522        -1.247647
 C        -3.202427        -2.579599        -2.622551
 H         1.780654         0.832320        -0.953896
 H         2.006223        -0.488870         0.211145
 H         1.576723        -0.793441        -1.508318
 H        -2.851667        -1.334355         1.313354
 H        -3.113154         1.511077         0.424392
 H        -3.273990        -0.030051        -1.381543
 H        -2.720438        -2.892211        -0.584451
 H        -4.000279        -3.339556        -2.632222
 H        -3.353364        -1.957459        -3.453091
 H        -2.321887        -3.210496        -2.776046
