19
Iteration:  1249
 C         1.491519         0.077685        -0.183060
 C         0.074992         0.053103        -0.059008
 C        -1.167559        -0.015404         0.073917
 C        -2.640313        -0.176128         0.279499
 O        -3.156696         1.175279         0.285823
 C        -3.226514        -0.971404        -0.808021
 O        -4.462352        -1.683399        -0.533440
 C        -3.255638        -2.428924        -0.911577
 C        -3.443748        -3.190216        -2.250226
 H         1.768227         0.752223        -1.032291
 H         2.033097         0.429120         0.834344
 H         1.751367        -0.967711        -0.352880
 H        -2.921971        -0.488416         1.334686
 H        -2.554697         1.704900        -0.326581
 H        -3.247354        -0.308138        -1.724256
 H        -2.747434        -2.940713        -0.060682
 H        -4.030833        -4.089993        -2.161058
 H        -3.794488        -2.535368        -3.005436
 H        -2.456192        -3.490407        -2.524223
