19
Iteration:   349
 C         1.461734         0.037695        -0.058455
 C         0.000514         0.083223         0.078390
 C        -1.223084        -0.041166         0.074663
 C        -2.704989        -0.024667         0.081857
 O        -3.200929         1.244981        -0.006042
 C        -3.218525        -0.932551        -1.031976
 O        -4.430070        -1.654602        -0.509018
 C        -3.296852        -2.435395        -0.801686
 C        -3.235190        -3.374799        -1.945253
 H         1.882281        -0.883154        -0.450763
 H         1.757697         0.893264        -0.712708
 H         1.943771         0.151251         0.860261
 H        -2.953319        -0.475673         1.057044
 H        -2.373494         1.760705         0.220134
 H        -3.354136        -0.596811        -2.045911
 H        -2.751070        -2.811858         0.091514
 H        -3.666019        -4.354249        -1.799381
 H        -3.704955        -3.021511        -2.874156
 H        -2.205884        -3.726544        -2.169874
