19
Iteration:  2076
 C         1.498411         0.260331        -0.325232
 C         0.014516        -0.005504        -0.203510
 C        -1.127096        -0.208131         0.151035
 C        -2.556051        -0.246743         0.335995
 O        -3.172046         1.023183         0.749074
 C        -3.132491        -0.895685        -0.912633
 O        -4.413641        -1.531639        -0.826247
 C        -3.293659        -2.382169        -0.883896
 C        -3.528946        -3.173784        -2.217724
 H         2.072451         0.021880         0.664598
 H         2.015091        -0.406462        -0.973359
 H         1.727287         1.251360        -0.726700
 H        -2.894762        -1.055797         1.228765
 H        -3.136958         1.627836         0.010166
 H        -2.958843        -0.173929        -1.766765
 H        -2.983934        -3.025710        -0.121344
 H        -4.545982        -3.610671        -2.109092
 H        -3.784222        -2.613337        -3.184679
 H        -2.739768        -3.939597        -2.392193
