19
Iteration:  4112charge 0 multiplicity 1
 C         1.603728         0.195737        -0.064245
 C         0.189949         0.029385        -0.048294
 C        -1.013954        -0.113848         0.055213
 C        -2.493956        -0.451935         0.239672
 O        -3.075074         0.614184         0.974649
 C        -3.351352        -0.841863        -0.899174
 O        -4.498463        -1.556772        -0.422482
 C        -3.503131        -2.282730        -1.273926
 C        -3.661441        -2.704663        -2.829109
 H         2.223514        -0.779895        -0.449699
 H         1.810267         0.967492        -0.841679
 H         2.135131         0.569863         0.769391
 H        -2.497535        -1.242255         0.982452
 H        -2.315537         1.113997         1.335708
 H        -3.483205        -0.111668        -1.734704
 H        -2.848256        -3.066616        -0.765972
 H        -3.962981        -3.699092        -2.919568
 H        -4.463464        -2.061956        -3.244414
 H        -2.771149        -2.463960        -3.389206
