19
Iteration:  4278charge 0 multiplicity 1
 C         1.335642         0.270021        -0.489545
 C        -0.032277        -0.118735        -0.138845
 C        -1.084106        -0.430259         0.365640
 C        -2.483945        -0.584406         0.595689
 O        -3.080558         0.673481         0.957562
 C        -3.121809        -0.896791        -0.681357
 O        -4.512951        -1.442474        -0.796862
 C        -3.343581        -2.183500        -1.269250
 C        -3.442458        -2.498629        -2.714469
 H         2.110942         0.355853         0.348424
 H         1.664430        -0.577696        -1.041796
 H         1.379454         1.129765        -0.998202
 H        -2.714980        -1.281946         1.402954
 H        -2.379606         1.194586         1.385737
 H        -2.953153        -0.054118        -1.292387
 H        -3.311196        -3.126995        -0.645820
 H        -4.202929        -3.235665        -2.612730
 H        -3.670484        -1.802870        -3.449452
 H        -2.465321        -2.884793        -2.952276
