19
Iteration:  3989
 C         1.403376         0.174958        -0.368992
 C         0.079715        -0.090409         0.089450
 C        -1.096271        -0.302359         0.110938
 C        -2.521007        -0.479645         0.465936
 O        -3.059779         0.888002         0.837555
 C        -3.333937        -0.958933        -0.674068
 O        -4.469348        -1.690834        -0.601813
 C        -3.298057        -2.259066        -1.315054
 C        -3.490002        -2.516539        -2.738202
 H         1.545066        -0.027126        -1.422529
 H         1.896185         1.074292         0.072625
 H         2.080527        -0.552850        -0.006239
 H        -2.673729        -1.057998         1.400142
 H        -2.421021         1.481965         1.282734
 H        -3.404696        -0.051817        -1.382211
 H        -2.815402        -3.000751        -0.597697
 H        -4.236960        -3.320769        -2.856065
 H        -3.990155        -1.628775        -3.172868
 H        -2.547847        -2.785729        -3.198561
