19
Iteration:  4060
 C         1.529820         0.290150        -0.191827
 C         0.093846        -0.098661        -0.012081
 C        -1.093707        -0.354159         0.060715
 C        -2.479931        -0.474588         0.439975
 O        -3.057730         0.890018         0.838537
 C        -3.282719        -0.868802        -0.787767
 O        -4.375896        -1.700750        -0.551031
 C        -3.326387        -2.331817        -1.345476
 C        -3.760553        -2.549098        -2.760732
 H         2.050468        -0.492186        -0.773820
 H         1.741526         1.315539        -0.258593
 H         2.005903         0.031059         0.730418
 H        -2.559641        -1.120237         1.394734
 H        -2.671046         1.146832         1.718557
 H        -3.570374        -0.052503        -1.356279
 H        -2.740558        -3.141412        -0.974054
 H        -4.590252        -3.272093        -2.730041
 H        -4.117821        -1.677882        -3.226231
 H        -2.876121        -3.017702        -3.234651
