19
Iteration:  3506
 C         1.536948         0.394814        -0.231188
 C         0.086195         0.102312        -0.093922
 C        -1.018159        -0.412844         0.052910
 C        -2.476669        -0.495297         0.467253
 O        -2.937314         0.797368         0.829641
 C        -3.279020        -0.891785        -0.790557
 O        -4.628835        -1.471871        -0.651638
 C        -3.512750        -2.309504        -1.174156
 C        -3.571093        -2.883236        -2.620416
 H         2.149476        -0.692601        -0.522599
 H         1.671606         1.330917        -0.878105
 H         1.835959         0.632481         0.737917
 H        -2.547010        -1.277226         1.169873
 H        -2.204374         1.115719         1.406058
 H        -3.171487        -0.076289        -1.524845
 H        -3.318239        -3.201954        -0.438566
 H        -4.046478        -3.822267        -2.851524
 H        -4.032554        -2.096168        -3.347300
 H        -2.575071        -3.061936        -3.190715
