19
Iteration:   564charge 0 multiplicity 1
 C         1.394675        -0.207444        -0.247608
 C         0.041452         0.035778         0.158491
 C        -1.211118         0.109236         0.051559
 C        -2.686026         0.012980         0.160745
 O        -3.319995         1.248464         0.120335
 C        -3.286418        -0.896512        -0.930978
 O        -4.532173        -1.579080        -0.719588
 C        -3.274025        -2.422480        -0.755812
 C        -2.917846        -3.388768        -1.934091
 H         2.097618         0.554963         0.121968
 H         1.794079        -1.214419        -0.215326
 H         1.387172         0.097627        -1.367994
 H        -2.865431        -0.571293         1.156731
 H        -2.976342         1.805400         0.808540
 H        -3.008192        -0.499695        -1.882726
 H        -2.897121        -2.738466         0.217328
 H        -3.563129        -4.299316        -1.896233
 H        -3.297054        -2.867830        -2.856478
 H        -1.887822        -3.756880        -1.821646
