19
Iteration:  2350charge 0 multiplicity 1
 C         1.481691        -0.009317        -0.511206
 C         0.081229         0.111043         0.030369
 C        -1.064526        -0.002265         0.306613
 C        -2.524927        -0.248931         0.348887
 O        -3.293713         0.976911         0.697640
 C        -3.316771        -0.869723        -0.884929
 O        -4.478305        -1.605296        -0.670927
 C        -3.326291        -2.381752        -1.070961
 C        -3.317736        -3.063437        -2.346975
 H         1.262466        -0.078308        -1.618952
 H         2.159583         0.819825        -0.313981
 H         1.897179        -0.939515        -0.175849
 H        -2.562461        -1.111822         1.027618
 H        -2.727173         1.746123         0.762944
 H        -3.299076        -0.152250        -1.698416
 H        -2.727977        -2.899271        -0.194120
 H        -3.862261        -3.966868        -2.165890
 H        -3.773365        -2.414850        -3.117133
 H        -2.283102        -3.255739        -2.665061
