19
Iteration:  3374charge 0 multiplicity 1
 C         1.490032         0.068888        -0.492624
 C         0.083263         0.086337        -0.040846
 C        -1.120967        -0.109659         0.194446
 C        -2.515311        -0.467047         0.476943
 O        -3.294200         0.804977         0.909106
 C        -3.064730        -0.966253        -0.810804
 O        -4.439126        -1.472191        -0.618583
 C        -3.400388        -2.318276        -1.171454
 C        -3.478468        -2.763136        -2.623747
 H         1.751222         0.255795        -1.618599
 H         2.143795         0.737854         0.053897
 H         1.828051        -0.832304        -0.162392
 H        -2.484504        -1.125389         1.428070
 H        -2.652682         1.394314         1.374088
 H        -3.236203        -0.324009        -1.694502
 H        -2.952881        -3.054509        -0.457593
 H        -4.212576        -3.622723        -2.707775
 H        -3.987286        -1.960074        -3.347470
 H        -2.498058        -3.048489        -3.164009
