19
Iteration:   901charge 0 multiplicity 1
 C         1.545117         0.217366        -0.061534
 C         0.114009         0.174884         0.037009
 C        -1.062472        -0.081148         0.058153
 C        -2.534849        -0.157613         0.175182
 O        -3.109321         1.238974         0.225968
 C        -3.249565        -1.024003        -0.902104
 O        -4.540888        -1.586402        -0.726914
 C        -3.410042        -2.468430        -0.889005
 C        -3.400314        -3.401869        -2.086488
 H         1.707224        -0.882783         0.082370
 H         1.816355         0.662781        -0.951747
 H         1.999095         0.641516         0.853656
 H        -2.700798        -0.470617         1.175608
 H        -3.942277         0.927051         0.525178
 H        -3.208152        -0.674452        -1.923603
 H        -3.062252        -2.802870         0.062295
 H        -4.141390        -4.031969        -1.805398
 H        -3.728344        -2.933062        -2.995537
 H        -2.460656        -3.854011        -2.280357
