19
Iteration:   475
 C         1.422795        -0.143459        -0.089977
 C        -0.050005        -0.126949        -0.190223
 C        -1.266408         0.041912         0.057806
 C        -2.754354         0.023497         0.242887
 O        -3.248832         1.454098         0.099862
 C        -3.345216        -0.961230        -0.819999
 O        -4.412147        -1.742867        -0.623671
 C        -3.156446        -2.463007        -0.741161
 C        -3.006371        -3.254772        -2.000130
 H         1.713762        -0.455941         0.940548
 H         1.846242        -0.941837        -0.643010
 H         1.897708         0.871995        -0.213437
 H        -3.141218        -0.155189         1.256931
 H        -3.061207         1.770793        -0.797634
 H        -3.242499        -0.541531        -1.821607
 H        -2.673617        -2.801780         0.152996
 H        -3.355214        -4.276810        -2.021455
 H        -3.638608        -2.807291        -2.796676
 H        -2.014176        -3.305630        -2.476417
