19
Iteration:  3716charge 0 multiplicity 1
 C         1.446864         0.161177        -0.451077
 C        -0.013836        -0.130991        -0.125729
 C        -1.218045        -0.297914         0.129608
 C        -2.611534        -0.402529         0.537527
 O        -3.011943         0.806738         0.998339
 C        -3.329767        -0.739794        -0.765665
 O        -4.491265        -1.624103        -0.710898
 C        -3.268805        -2.233180        -1.212905
 C        -3.347112        -2.719573        -2.595170
 H         1.921129         0.577808         0.544552
 H         1.998526        -0.723948        -0.735893
 H         1.760328         0.778293        -1.222702
 H        -2.720194        -1.196820         1.263242
 H        -2.367051         1.532423         0.892451
 H        -3.332800         0.008520        -1.588744
 H        -2.996462        -2.953176        -0.401458
 H        -3.625198        -3.816250        -2.503801
 H        -4.181900        -2.206218        -3.106221
 H        -2.410415        -2.463956        -3.206173
