19
Iteration:   955charge 0 multiplicity 1
 C         1.440950         0.104448        -0.183439
 C         0.017379        -0.115792        -0.077930
 C        -1.186884        -0.128395         0.048927
 C        -2.652404        -0.109221         0.283535
 O        -3.283907         1.115220         0.313748
 C        -3.144010        -0.935662        -0.952417
 O        -4.462349        -1.449098        -0.718196
 C        -3.324972        -2.366907        -0.829230
 C        -3.189215        -3.311307        -2.012014
 H         2.227476        -0.498403         0.361558
 H         1.764062         0.171331        -1.222022
 H         1.474877         1.129162         0.240230
 H        -2.955301        -0.603654         1.187899
 H        -2.661013         1.698278        -0.075648
 H        -2.998652        -0.560287        -1.994573
 H        -3.261957        -2.783311         0.184847
 H        -3.695243        -4.240235        -1.828276
 H        -3.457999        -2.764696        -2.929129
 H        -2.143821        -3.727642        -2.073300
