19
Iteration:   403charge 0 multiplicity 1
 C         1.339580        -0.004415        -0.086846
 C        -0.054935        -0.063979        -0.023658
 C        -1.217625        -0.004681         0.159878
 C        -2.656291        -0.008355         0.155429
 O        -3.244687         1.376940        -0.036445
 C        -3.266002        -0.908011        -0.883846
 O        -4.360290        -1.766605        -0.535309
 C        -3.162429        -2.451616        -0.782831
 C        -3.213112        -3.310050        -2.025389
 H         1.699853        -0.976478         0.253722
 H         1.779885         0.027265        -1.125908
 H         1.703263         0.657402         0.686599
 H        -2.936380        -0.318346         1.173975
 H        -2.409223         1.787178        -0.397683
 H        -3.404318        -0.408861        -1.834135
 H        -2.572524        -2.887838         0.097912
 H        -3.779060        -4.288603        -1.993841
 H        -3.632586        -2.729917        -2.869868
 H        -2.115269        -3.487106        -2.287412
