19
Iteration:  2068
 C         1.422797         0.258359        -0.340040
 C         0.047141        -0.054115        -0.209435
 C        -1.125735        -0.192067         0.124662
 C        -2.583900        -0.225073         0.368503
 O        -3.168710         1.009586         0.754705
 C        -3.125957        -0.900700        -0.871986
 O        -4.390167        -1.486393        -0.851970
 C        -3.278857        -2.430396        -0.954613
 C        -3.526575        -3.141792        -2.175492
 H         1.888044         0.051774         0.637454
 H         1.838403        -0.399675        -1.142470
 H         1.739867         1.276701        -0.553235
 H        -2.856931        -1.022357         1.113876
 H        -2.871358         1.671536         0.115182
 H        -3.130142        -0.371551        -1.827693
 H        -3.126632        -2.943293         0.044607
 H        -4.348136        -3.803148        -1.954401
 H        -3.507758        -2.557818        -3.150907
 H        -2.735189        -3.922629        -2.305048
