19
Iteration:   120charge 0 multiplicity 1
 C         1.475484         0.291718        -0.104029
 C         0.057912         0.010924        -0.007190
 C        -1.128614        -0.024189         0.089806
 C        -2.539685        -0.117068         0.202440
 O        -3.239642         1.239563         0.111415
 C        -3.080275        -1.034922        -0.929036
 O        -4.444413        -1.388429        -0.930496
 C        -3.479244        -2.515586        -0.729878
 C        -3.373202        -3.652064        -1.750199
 H         1.739865         1.223715         0.461749
 H         2.106770        -0.452219         0.488547
 H         1.815733         0.373797        -1.156813
 H        -2.883242        -0.498870         1.162012
 H        -2.947637         1.644067        -0.753350
 H        -2.712618        -0.809287        -1.927079
 H        -3.497424        -2.860167         0.256755
 H        -4.150753        -4.405863        -1.658949
 H        -3.458586        -3.139375        -2.709143
 H        -2.367803        -4.066786        -1.622815
