19
Iteration:  2630charge 0 multiplicity 1
 C         1.463896         0.092845        -0.187886
 C         0.063978        -0.038590        -0.245399
 C        -1.105230        -0.160009        -0.004651
 C        -2.520318        -0.317814         0.313840
 O        -3.269864         0.949802         0.688912
 C        -3.224536        -0.898633        -0.847392
 O        -4.444115        -1.643901        -0.521776
 C        -3.270651        -2.345590        -1.016582
 C        -3.455532        -2.845484        -2.455888
 H         1.769814         0.378154         0.797816
 H         2.033498        -0.792378        -0.478759
 H         1.782798         0.871699        -0.925445
 H        -2.638424        -1.001382         1.196717
 H        -2.625521         1.593158         1.036426
 H        -3.354497        -0.136258        -1.544732
 H        -2.678433        -2.804684        -0.316587
 H        -3.975650        -3.816497        -2.506826
 H        -3.990824        -2.099525        -3.086032
 H        -2.432605        -2.819240        -2.797826
