19
Iteration:  3030
 C         1.494220         0.105565        -0.363412
 C         0.060301         0.002465        -0.031650
 C        -1.118221        -0.184834         0.090419
 C        -2.533073        -0.365761         0.399154
 O        -3.076895         0.975147         0.736069
 C        -3.382905        -0.861877        -0.769624
 O        -4.510266        -1.731841        -0.532444
 C        -3.391364        -2.270921        -1.193086
 C        -3.334335        -2.753232        -2.536265
 H         2.088512        -0.842074        -0.059678
 H         1.704555         0.116491        -1.468752
 H         1.877966         0.843767         0.213437
 H        -2.673876        -1.250954         1.066232
 H        -2.549427         1.253801         1.518942
 H        -3.527681        -0.180422        -1.602369
 H        -3.140221        -3.040150        -0.544225
 H        -3.711338        -3.818519        -2.502383
 H        -4.025219        -2.258622        -3.321111
 H        -2.295513        -2.657326        -2.975135
