19
Iteration:  1842
 C         1.441462        -0.187676        -0.225342
 C        -0.045038         0.003585        -0.372370
 C        -1.203542        -0.094950         0.036018
 C        -2.623336        -0.120306         0.342069
 O        -3.247612         1.197710         0.555143
 C        -3.329458        -0.928661        -0.809967
 O        -4.365004        -1.762315        -0.422982
 C        -3.134076        -2.370663        -0.910951
 C        -3.225503        -2.923599        -2.401641
 H         1.816942        -0.574530        -1.200278
 H         1.866757         0.842671         0.072998
 H         1.639503        -0.899239         0.614662
 H        -2.679723        -0.624299         1.346797
 H        -3.309947         1.633535        -0.356848
 H        -3.618015        -0.258627        -1.610806
 H        -2.573256        -2.661469        -0.096306
 H        -3.590518        -3.997949        -2.419397
 H        -4.071273        -2.310228        -2.707404
 H        -2.352106        -2.533534        -2.926226
