19
Iteration:  4123
 C         1.632192         0.209033        -0.103826
 C         0.165467         0.040398         0.010255
 C        -1.030580        -0.170669        -0.082523
 C        -2.363542        -0.471755         0.266831
 O        -3.158020         0.657726         1.067896
 C        -3.297398        -0.900370        -0.949747
 O        -4.550353        -1.517879        -0.435783
 C        -3.471105        -2.286216        -1.330673
 C        -3.677029        -2.686180        -2.780403
 H         2.154779        -0.893898        -0.242149
 H         1.934751         0.856042        -0.948274
 H         1.943034         0.593062         0.822476
 H        -2.374383        -1.359884         0.894336
 H        -2.490329         1.276338         1.445933
 H        -3.514310        -0.033188        -1.585630
 H        -2.827103        -2.934687        -0.652992
 H        -3.824654        -3.722676        -2.856341
 H        -4.518896        -2.195422        -3.280822
 H        -2.757977        -2.526225        -3.333132
