19
Iteration:  2348charge 0 multiplicity 1
 C         1.473839         0.005675        -0.504559
 C         0.094994         0.105770         0.030757
 C        -1.083814        -0.013016         0.302849
 C        -2.506570        -0.234717         0.346747
 O        -3.295831         0.992370         0.697888
 C        -3.286734        -0.893881        -0.895195
 O        -4.488742        -1.607745        -0.662157
 C        -3.332978        -2.379143        -1.050298
 C        -3.335424        -3.068982        -2.359737
 H         1.297978        -0.075959        -1.618414
 H         2.154069         0.754693        -0.286348
 H         1.848847        -0.916083        -0.201173
 H        -2.512973        -1.183452         1.010293
 H        -2.768745         1.780378         0.786337
 H        -3.316607        -0.168528        -1.721702
 H        -2.718986        -2.939893        -0.201034
 H        -3.812399        -3.995117        -2.196682
 H        -3.680901        -2.385444        -3.172578
 H        -2.334022        -3.164005        -2.685977
