19
Iteration:     7
 C         1.485595         0.166819        -0.060646
 C         0.044335         0.046946        -0.025856
 C        -1.191333         0.033245         0.093804
 C        -2.607351        -0.093892         0.142574
 O        -3.223875         1.289121        -0.025606
 C        -3.153344        -1.001698        -0.904970
 O        -4.491090        -1.547734        -0.813383
 C        -3.347322        -2.491406        -0.674832
 C        -3.305513        -3.487529        -1.753021
 H         1.786739        -0.577132         0.771452
 H         2.021559        -0.346352        -0.961645
 H         1.872565         1.183921         0.072892
 H        -3.093501        -0.663021         0.989554
 H        -2.685351         1.676620        -0.717899
 H        -2.825096        -0.787812        -1.933452
 H        -2.953022        -2.814305         0.311281
 H        -4.020934        -4.335362        -1.597037
 H        -3.545613        -3.125322        -2.765737
 H        -2.335297        -4.006285        -1.850382
