19
Iteration:   798charge 0 multiplicity 1
 C         1.560091         0.323863         0.085348
 C         0.085531         0.316468         0.058625
 C        -1.062124        -0.077344         0.043591
 C        -2.504428        -0.232290         0.133783
 O        -3.002085         1.229093         0.240802
 C        -3.191750        -1.104702        -1.052179
 O        -4.475049        -1.575144        -0.621530
 C        -3.519416        -2.548037        -0.881345
 C        -3.595878        -3.451500        -2.096084
 H         1.808885        -0.061359        -0.853962
 H         2.029822         1.371763         0.199970
 H         1.755002        -0.197512         0.972361
 H        -2.943229        -0.754599         0.914923
 H        -3.127388         1.512966        -0.730207
 H        -3.127598        -0.672666        -2.074340
 H        -3.308958        -3.156145         0.058675
 H        -4.326118        -4.290637        -2.056190
 H        -3.889487        -2.902064        -2.986430
 H        -2.600420        -3.900030        -2.140220
