19
Iteration:  4387
 C         1.405775        -0.066786        -0.411640
 C        -0.027514        -0.034013        -0.278029
 C        -1.185187        -0.227582         0.135691
 C        -2.555792        -0.389025         0.481884
 O        -3.190733         0.657901         1.237881
 C        -3.285881        -0.821729        -0.783269
 O        -4.435844        -1.549244        -0.566417
 C        -3.244490        -2.206065        -1.338839
 C        -3.305614        -2.465151        -2.773346
 H         1.819715         0.945119        -0.027979
 H         2.007131        -0.874221         0.043425
 H         1.660226        -0.203139        -1.432335
 H        -2.532859        -1.332328         1.186240
 H        -2.499746         1.240657         1.599838
 H        -3.399858        -0.049019        -1.566549
 H        -2.736009        -3.047342        -0.687436
 H        -3.870478        -3.430772        -2.821533
 H        -3.901153        -1.758128        -3.402218
 H        -2.253083        -2.596535        -3.282939
