19
Iteration:   211
 C         1.529679         0.267364        -0.177438
 C         0.164189        -0.015956         0.265990
 C        -1.042214         0.059281         0.193991
 C        -2.556813        -0.096846         0.012468
 O        -3.287677         1.109286         0.046017
 C        -3.148029        -1.023373        -1.021428
 O        -4.629276        -1.427888        -0.828251
 C        -3.436627        -2.454409        -0.771492
 C        -3.312712        -3.583786        -1.776379
 H         1.540945         1.045726        -1.021964
 H         2.096036         0.733821         0.656022
 H         2.054300        -0.669986        -0.686839
 H        -2.610501        -0.576479         0.991845
 H        -2.788847         1.893759         0.141192
 H        -2.780370        -0.784844        -2.037954
 H        -3.470512        -2.699926         0.216302
 H        -4.185874        -4.222389        -1.586264
 H        -3.260474        -3.183602        -2.787736
 H        -2.412418        -4.138106        -1.378053
