19
Iteration:   655charge 0 multiplicity 1
 C         1.430860         0.130511        -0.290195
 C         0.058145        -0.022438         0.174995
 C        -1.155278         0.057448         0.267355
 C        -2.611879        -0.157237         0.128981
 O        -3.253535         1.219960         0.141545
 C        -3.157815        -1.020062        -0.942351
 O        -4.494348        -1.471897        -0.802645
 C        -3.432066        -2.399089        -0.794638
 C        -3.147855        -3.450334        -1.953623
 H         1.658661         1.113531        -0.745088
 H         2.174186        -0.195688         0.576435
 H         1.538701        -0.763056        -0.935812
 H        -2.880255        -0.711400         1.121271
 H        -2.655827         1.839874         0.547705
 H        -3.116683        -0.853674        -2.050399
 H        -3.248238        -2.910652         0.241944
 H        -3.938184        -4.215743        -1.856377
 H        -3.293842        -2.911349        -2.892221
 H        -2.197520        -3.891486        -1.812774
