19
Iteration:  2022charge 0 multiplicity 1
 C         1.476801         0.167105        -0.529968
 C         0.069613         0.026091        -0.069926
 C        -1.099240        -0.240567         0.224937
 C        -2.500550        -0.304319         0.405484
 O        -3.192470         0.980683         0.596607
 C        -3.219451        -0.911180        -0.873365
 O        -4.663273        -1.362608        -0.810094
 C        -3.523449        -2.375606        -0.941376
 C        -3.169183        -3.156408        -2.135466
 H         2.321070        -0.347751         0.069694
 H         1.692866         0.124424        -1.568841
 H         1.852257         1.177588        -0.361738
 H        -2.662161        -1.120355         1.117145
 H        -2.811775         1.542154         1.255971
 H        -2.745075        -0.431617        -1.753996
 H        -3.285656        -2.880783        -0.009831
 H        -3.743853        -4.093309        -2.253749
 H        -3.345924        -2.653438        -3.137169
 H        -2.119583        -3.543442        -2.188321
