19
Iteration:  4732
 C         1.413690         0.024180        -0.495085
 C        -0.020890        -0.078574        -0.238951
 C        -1.155591        -0.251056         0.200180
 C        -2.523556        -0.517753         0.561814
 O        -3.203131         0.496293         1.297554
 C        -3.146825        -0.792076        -0.812023
 O        -4.460232        -1.466226        -0.689907
 C        -3.345078        -2.156179        -1.302954
 C        -3.363969        -2.406585        -2.761496
 H         1.889890        -0.843240        -0.821501
 H         1.424625         0.782741        -1.240574
 H         2.030348         0.434918         0.369371
 H        -2.568735        -1.377771         1.105178
 H        -2.601428         1.244769         1.417264
 H        -3.119015         0.050534        -1.451700
 H        -3.054890        -2.951589        -0.628479
 H        -4.041895        -3.111919        -3.233919
 H        -3.333845        -1.605991        -3.477374
 H        -2.420318        -2.865633        -2.835155
