19
Iteration:   850charge 0 multiplicity 1
 C         1.634449         0.322004         0.062357
 C         0.177761         0.002895        -0.003887
 C        -1.053650        -0.070764         0.063444
 C        -2.536333        -0.132320         0.069971
 O        -3.358765         1.007517         0.089090
 C        -3.103718        -1.011295        -0.940895
 O        -4.418726        -1.532544        -0.633838
 C        -3.364141        -2.443909        -0.809509
 C        -3.621454        -3.327689        -2.054534
 H         2.251578        -0.476185        -0.440986
 H         1.586725         1.351084        -0.366569
 H         1.839222         0.453142         1.160167
 H        -2.778597        -0.756169         1.016730
 H        -2.938213         1.820842         0.409799
 H        -3.124955        -0.613480        -1.949470
 H        -2.981448        -2.905049         0.146705
 H        -4.536891        -4.095726        -1.963159
 H        -3.952601        -2.595284        -2.848865
 H        -2.626981        -3.732630        -2.390713
