19
Iteration:   106charge 0 multiplicity 1
 C         1.638145         0.311199        -0.145296
 C         0.158917        -0.011157         0.167926
 C        -1.082824        -0.101796         0.064634
 C        -2.704564        -0.056105         0.076959
 O        -3.314942         1.133980         0.086521
 C        -3.129537        -1.049502        -0.973807
 O        -4.479430        -1.428702        -0.890613
 C        -3.498642        -2.415500        -0.687138
 C        -3.345700        -3.536296        -1.739415
 H         1.856395         1.242112         0.447664
 H         2.337252        -0.582271         0.031062
 H         1.807784         0.572277        -1.169187
 H        -3.009896        -0.517941         1.087941
 H        -2.912697         1.730599        -0.522207
 H        -2.678618        -0.810417        -1.939461
 H        -3.413328        -2.734422         0.452247
 H        -4.114916        -4.355847        -1.607972
 H        -3.306232        -3.302576        -2.817407
 H        -2.402678        -4.086340        -1.563757
