19
Iteration:  3159charge 0 multiplicity 1
 C         1.400433        -0.110276        -0.408033
 C         0.053273         0.038984         0.059020
 C        -1.125311        -0.039468         0.211841
 C        -2.522677        -0.309881         0.477283
 O        -3.133684         1.030412         0.706309
 C        -3.341975        -0.837220        -0.795456
 O        -4.345325        -1.894991        -0.468763
 C        -3.253806        -2.235151        -1.267030
 C        -3.471880        -2.720427        -2.683340
 H         2.000610         0.328271         0.263755
 H         1.663318        -1.162954        -0.611155
 H         1.533915         0.462978        -1.349293
 H        -2.899122        -1.144226         1.202458
 H        -2.918478         1.179615         1.634464
 H        -3.617348        -0.002206        -1.503194
 H        -2.426622        -2.676708        -0.713437
 H        -4.066471        -3.545191        -2.711236
 H        -3.985636        -1.922825        -3.214240
 H        -2.579115        -3.010459        -3.196719
