19
Iteration:  1892charge 0 multiplicity 1
 C         1.395701        -0.145790        -0.451471
 C         0.090942        -0.033716         0.049313
 C        -1.156579         0.049794         0.114459
 C        -2.611069        -0.087338         0.254512
 O        -3.295443         1.123992         0.538727
 C        -3.359729        -0.891878        -0.859722
 O        -4.407531        -1.698606        -0.444365
 C        -3.218491        -2.390268        -0.974121
 C        -3.210131        -3.025501        -2.404118
 H         1.374556        -0.865751        -1.280882
 H         1.654223         0.788093        -0.992411
 H         1.983480        -0.367831         0.443546
 H        -2.636917        -0.740295         1.128176
 H        -2.645821         1.735016         0.888759
 H        -3.515638        -0.270319        -1.814119
 H        -2.759102        -3.091637        -0.120268
 H        -3.784597        -3.903729        -2.173089
 H        -3.570270        -2.350626        -3.210947
 H        -2.134660        -3.320379        -2.398076
