19
Iteration:  2037charge 0 multiplicity 1
 C         1.443233         0.233994        -0.445780
 C         0.067283        -0.079362        -0.156453
 C        -1.113131        -0.127278         0.196236
 C        -2.595564        -0.311247         0.377158
 O        -3.174379         0.967493         0.660712
 C        -3.157461        -0.903869        -0.877853
 O        -4.489173        -1.365865        -0.783867
 C        -3.499741        -2.342825        -0.963905
 C        -3.277066        -3.230085        -2.199548
 H         2.033190        -0.327349         0.226206
 H         1.603293        -0.214770        -1.493073
 H         1.614340         1.324398        -0.340023
 H        -2.841820        -0.959898         1.209198
 H        -2.365596         1.474426         0.921788
 H        -3.124014        -0.344414        -1.813525
 H        -3.402231        -2.975167         0.046924
 H        -3.896366        -4.129088        -2.130744
 H        -3.274890        -2.647296        -3.126021
 H        -2.254615        -3.573982        -1.972473
