19
Iteration:   165
 C         1.427506         0.264902        -0.048438
 C        -0.005609         0.212500        -0.166563
 C        -1.105784        -0.175284         0.143118
 C        -2.616761        -0.133278         0.209268
 O        -3.188889         1.176781         0.106574
 C        -3.034195        -1.092814        -0.929353
 O        -4.422086        -1.412279        -0.971591
 C        -3.473693        -2.489631        -0.618132
 C        -3.342051        -3.531995        -1.787416
 H         1.963930         1.238420        -0.216073
 H         1.805467        -0.077212         0.971213
 H         1.796193        -0.345859        -0.960216
 H        -2.885379        -0.446767         1.187734
 H        -2.743101         1.697517        -0.605903
 H        -2.753304        -0.930074        -1.936519
 H        -3.493843        -2.663842         0.378485
 H        -4.225189        -4.081926        -1.555763
 H        -3.530836        -3.000771        -2.703852
 H        -2.461063        -4.144370        -1.653305
