19
Iteration:  4954charge 0 multiplicity 1
 C         1.511485         0.179233        -0.095477
 C         0.117037         0.011116        -0.092836
 C        -1.085368        -0.101345        -0.003620
 C        -2.429525        -0.536684         0.317007
 O        -3.054118         0.397349         1.303366
 C        -3.253515        -0.803460        -0.849031
 O        -4.371400        -1.569913        -0.603282
 C        -3.414646        -2.127251        -1.436654
 C        -3.792867        -2.480419        -2.826414
 H         1.992045         0.276582         0.920088
 H         1.878621        -0.852711        -0.427284
 H         1.831809         0.937237        -0.798580
 H        -2.297694        -1.585029         0.923034
 H        -2.637640         1.255998         1.055447
 H        -3.255035         0.026644        -1.702759
 H        -2.962799        -3.035019        -0.902422
 H        -4.608196        -3.186564        -2.734474
 H        -4.025366        -1.607566        -3.477204
 H        -3.041464        -3.060322        -3.469533
