19
Iteration:  2639
 C         1.565856         0.137459        -0.190629
 C         0.013881        -0.009502        -0.218382
 C        -1.212146        -0.268555        -0.011551
 C        -2.539817        -0.283437         0.339872
 O        -3.244466         0.948933         0.696846
 C        -3.202887        -0.868588        -0.822582
 O        -4.405578        -1.654195        -0.525084
 C        -3.284366        -2.296377        -1.087593
 C        -3.459086        -2.845461        -2.418155
 H         1.857156         0.459634         0.698332
 H         2.157280        -0.805025        -0.295383
 H         1.778845         0.857156        -1.040449
 H        -2.776349        -1.113305         1.106860
 H        -2.523795         1.582617         0.868976
 H        -3.262136        -0.181745        -1.668305
 H        -2.887932        -3.053220        -0.339044
 H        -3.882746        -3.852810        -2.488084
 H        -4.189752        -2.230543        -3.012015
 H        -2.559120        -3.051663        -2.945890
