19
Iteration:  4089
 C         1.561794         0.224851        -0.118410
 C         0.166887         0.006548        -0.041608
 C        -1.021515        -0.215331         0.084467
 C        -2.417186        -0.522679         0.327336
 O        -3.073579         0.753611         0.898926
 C        -3.307500        -0.867775        -0.894711
 O        -4.531322        -1.707036        -0.566248
 C        -3.418313        -2.239766        -1.295009
 C        -3.730834        -2.602347        -2.690470
 H         2.167789        -0.671031        -0.567937
 H         1.928300         1.190421        -0.596273
 H         2.038429         0.330032         0.902234
 H        -2.478411        -1.224427         1.134020
 H        -2.423192         1.207064         1.472797
 H        -3.581315         0.108968        -1.423796
 H        -2.598527        -2.950973        -0.899714
 H        -4.236558        -3.554838        -2.641735
 H        -4.427550        -1.825607        -3.160240
 H        -2.820904        -2.656567        -3.274433
