19
Iteration:  3178
 C         1.482550        -0.055762        -0.416600
 C         0.039578        -0.024820        -0.044314
 C        -1.125977        -0.137458         0.302880
 C        -2.568455        -0.224991         0.492748
 O        -3.183725         1.018009         0.664775
 C        -3.369576        -0.942378        -0.719179
 O        -4.388363        -1.815928        -0.429676
 C        -3.201246        -2.276050        -1.291737
 C        -3.435145        -2.644718        -2.718273
 H         2.294484         0.497403         0.104653
 H         1.692599        -1.110849        -0.316209
 H         1.562519         0.336181        -1.578967
 H        -2.701282        -0.793252         1.451850
 H        -2.903738         1.275256         1.558257
 H        -3.655692        -0.075101        -1.407009
 H        -2.838279        -3.189844        -0.733410
 H        -3.868924        -3.672244        -2.802018
 H        -3.968249        -1.941985        -3.384069
 H        -2.427942        -2.772327        -3.186755
