19
Iteration:  2969
 C         1.344026         0.246920        -0.423718
 C        -0.009527        -0.183173        -0.051757
 C        -1.171686        -0.242192         0.264645
 C        -2.580036        -0.334859         0.469606
 O        -3.061535         0.898932         0.791780
 C        -3.174986        -0.869246        -0.832400
 O        -4.402701        -1.561887        -0.701324
 C        -3.222418        -2.315417        -1.132786
 C        -3.517977        -2.855299        -2.504921
 H         1.904259        -0.583828        -0.846210
 H         1.311696         1.107682        -1.145439
 H         2.035524         0.623208         0.515385
 H        -2.885920        -1.056252         1.223572
 H        -2.397227         1.607871         0.839132
 H        -3.015877        -0.350471        -1.783368
 H        -2.898793        -3.161718        -0.417479
 H        -4.401595        -3.483494        -2.612179
 H        -3.658054        -1.973283        -3.068054
 H        -2.681448        -3.374489        -2.885433
