19
Iteration:  3520charge 0 multiplicity 1
 C         1.487199         0.392975        -0.194016
 C         0.116751         0.051506        -0.085128
 C        -1.017138        -0.284982         0.111035
 C        -2.408394        -0.551538         0.397683
 O        -2.942264         0.814189         0.847954
 C        -3.285172        -0.941656        -0.822169
 O        -4.576433        -1.491822        -0.626170
 C        -3.585276        -2.318308        -1.224898
 C        -3.609124        -2.847401        -2.650659
 H         2.079759        -0.580612        -0.454506
 H         1.710810         1.021182        -1.096075
 H         2.014422         0.739963         0.730985
 H        -2.656194        -1.195863         1.290781
 H        -2.273899         1.325089         1.335267
 H        -3.272565        -0.139833        -1.511934
 H        -3.098316        -3.083964        -0.676246
 H        -4.080683        -3.852993        -2.577705
 H        -4.130756        -2.294763        -3.382037
 H        -2.490291        -2.991823        -2.862925
