19
Iteration:  1649charge 0 multiplicity 1
 C         1.481000         0.099083        -0.365909
 C         0.082459         0.012438        -0.061548
 C        -1.137701        -0.213511         0.034310
 C        -2.608750        -0.205602         0.246011
 O        -3.160448         1.077552         0.508586
 C        -3.318028        -0.897142        -0.876055
 O        -4.509032        -1.577838        -0.601893
 C        -3.298479        -2.370332        -0.918268
 C        -3.302978        -3.102454        -2.227017
 H         1.834300         1.017241         0.192557
 H         1.890514        -0.738140         0.143905
 H         1.635032         0.167353        -1.476711
 H        -2.659918        -0.758580         1.225622
 H        -2.809430         1.427928         1.378977
 H        -3.344006        -0.235569        -1.724357
 H        -2.873922        -2.956687        -0.024689
 H        -3.912902        -3.999251        -2.154520
 H        -3.680315        -2.399276        -2.915142
 H        -2.251077        -3.271280        -2.419439
