19
Iteration:  2398
 C         1.380479        -0.021109        -0.486152
 C        -0.087655        -0.155041        -0.250042
 C        -1.217421        -0.129023         0.158012
 C        -2.674585        -0.163453         0.392383
 O        -3.266756         1.031727         0.875366
 C        -3.154250        -0.800014        -0.888026
 O        -4.405811        -1.541128        -0.668907
 C        -3.143730        -2.346954        -0.948718
 C        -3.206526        -3.051468        -2.378564
 H         1.724459        -0.485063        -1.409086
 H         1.521492         1.135701        -0.562113
 H         1.959556        -0.326247         0.498417
 H        -2.858783        -1.007226         1.006735
 H        -2.691633         1.826130         0.748525
 H        -3.178760        -0.276375        -1.861119
 H        -3.004749        -2.928690        -0.049339
 H        -3.943264        -3.931724        -2.341174
 H        -3.519409        -2.351602        -3.222632
 H        -2.117223        -3.381088        -2.568249
