19
Iteration:  2438
 C         1.400346         0.011111        -0.523002
 C        -0.037377        -0.074633        -0.181612
 C        -1.192001        -0.235810         0.089830
 C        -2.633748        -0.227726         0.479839
 O        -3.159727         1.007690         0.765136
 C        -3.336779        -0.847642        -0.702359
 O        -4.564833        -1.588621        -0.701426
 C        -3.326544        -2.296214        -0.992247
 C        -2.994893        -2.938498        -2.349669
 H         1.807641        -0.873267        -0.969302
 H         1.711347         0.863455        -1.091802
 H         1.953708         0.088151         0.376449
 H        -2.794320        -0.704884         1.485297
 H        -2.995398         1.599415         0.022811
 H        -3.148577        -0.144232        -1.529258
 H        -2.850591        -2.954779        -0.184088
 H        -3.583214        -3.802781        -2.523504
 H        -3.212429        -2.229198        -3.095622
 H        -1.964944        -3.119615        -2.629165
