19
Iteration:   872charge 0 multiplicity 1
 C         1.557198         0.291999         0.029095
 C         0.117644        -0.011566         0.082657
 C        -1.098846         0.030486         0.018888
 C        -2.535756        -0.248592         0.089521
 O        -3.250858         1.060837         0.054138
 C        -3.161559        -1.075971        -0.982222
 O        -4.424524        -1.450339        -0.557011
 C        -3.427440        -2.420620        -0.848553
 C        -3.481635        -3.316698        -2.070079
 H         1.960210        -0.676494        -0.390904
 H         1.717643         1.091912        -0.780587
 H         2.015948         0.661586         0.993765
 H        -2.749465        -0.758393         1.121375
 H        -3.280685         1.130796         1.055409
 H        -3.139359        -0.604731        -1.959635
 H        -2.873768        -2.823963         0.048684
 H        -4.360491        -4.115564        -1.990095
 H        -3.774436        -2.759562        -3.003106
 H        -2.452601        -3.775229        -2.179990
