19
Iteration:  2727
 C         1.457076         0.350104        -0.270017
 C         0.060625        -0.073163        -0.037991
 C        -1.148752        -0.292375         0.143466
 C        -2.524631        -0.425038         0.432340
 O        -3.053137         0.935728         0.658537
 C        -3.153616        -0.954700        -0.862565
 O        -4.507759        -1.578863        -0.617711
 C        -3.354739        -2.335802        -1.079419
 C        -3.576750        -2.860201        -2.474796
 H         1.650185         1.314648        -0.064760
 H         2.155644        -0.151977         0.454063
 H         1.889126         0.035028        -1.295646
 H        -2.656460        -1.098595         1.334718
 H        -2.726383         1.443225        -0.107706
 H        -3.043714        -0.280062        -1.701836
 H        -2.766917        -3.059072        -0.372601
 H        -4.278947        -3.662546        -2.602163
 H        -3.915300        -1.985281        -3.087934
 H        -2.554463        -3.063015        -2.691374
