19
Iteration:  2195
 C         1.526033         0.316593        -0.120463
 C         0.064256         0.038045        -0.207078
 C        -1.100306        -0.201494         0.094387
 C        -2.499436        -0.290048         0.347643
 O        -3.074514         1.016318         0.546254
 C        -3.237150        -0.914466        -1.013343
 O        -4.440979        -1.616538        -0.449272
 C        -3.360135        -2.381492        -1.054533
 C        -3.670817        -3.171286        -2.402739
 H         1.707504         1.385255         0.376289
 H         1.997121        -0.313115         0.628695
 H         2.186154         0.285879        -0.992698
 H        -2.635160        -0.926304         1.183299
 H        -2.402017         1.754347         0.514923
 H        -3.397260        -0.021672        -1.653105
 H        -2.731994        -2.912351        -0.257340
 H        -4.140644        -4.156889        -2.302462
 H        -4.369423        -2.669971        -3.129006
 H        -2.744069        -3.459443        -2.926865
