19
Iteration:  2144charge 0 multiplicity 1
 C         1.640074         0.266146        -0.169206
 C         0.183391         0.115916        -0.019889
 C        -1.027306        -0.074462        -0.025398
 C        -2.453849        -0.270816         0.203125
 O        -3.231774         0.919720         0.542854
 C        -3.225386        -1.048745        -0.803461
 O        -4.496396        -1.577097        -0.578766
 C        -3.475584        -2.500475        -0.934284
 C        -3.597628        -2.981589        -2.319201
 H         2.151449         0.906713         0.543727
 H         2.211554        -0.675646        -0.202921
 H         1.906290         0.667166        -1.143552
 H        -2.373146        -0.892757         1.238396
 H        -3.564706         1.502752        -0.164006
 H        -2.986799        -0.637379        -1.793033
 H        -3.268478        -3.025443        -0.078044
 H        -4.154355        -3.908956        -2.459171
 H        -4.237224        -2.286143        -2.908508
 H        -2.666708        -3.089526        -2.911288
