19
Iteration:  2417
 C         1.351404         0.018173        -0.467954
 C        -0.036248        -0.222965        -0.330041
 C        -1.190039        -0.068155         0.192468
 C        -2.641763        -0.271434         0.440437
 O        -3.212010         1.046616         0.837152
 C        -3.252071        -0.881374        -0.846018
 O        -4.469587        -1.605468        -0.734713
 C        -3.269634        -2.301459        -0.989529
 C        -3.117027        -2.923756        -2.278649
 H         1.770756        -0.683778        -1.162819
 H         1.582670         1.070154        -0.814474
 H         1.872540        -0.098159         0.518852
 H        -2.750663        -0.887521         1.354579
 H        -2.757142         1.785448         0.387926
 H        -3.167538        -0.332034        -1.807560
 H        -2.737618        -2.841226        -0.076434
 H        -3.820932        -3.740847        -2.336834
 H        -3.282767        -2.239030        -3.081442
 H        -2.058322        -3.165996        -2.542310
