19
Iteration:   159charge 0 multiplicity 1
 C         1.408622         0.266086        -0.048170
 C        -0.007774         0.230478        -0.225311
 C        -1.101070        -0.156619         0.187591
 C        -2.603903        -0.158963         0.222846
 O        -3.168433         1.215956         0.110798
 C        -3.070278        -1.076708        -0.944963
 O        -4.387818        -1.422551        -0.992703
 C        -3.458359        -2.539381        -0.617691
 C        -3.383149        -3.530661        -1.747662
 H         1.831774         1.252888        -0.135082
 H         1.564850        -0.271730         0.869567
 H         1.919017        -0.326551        -0.789968
 H        -2.833328        -0.515633         1.279857
 H        -2.780474         1.570001        -0.674512
 H        -2.608004        -0.675634        -1.932279
 H        -3.517348        -2.639073         0.561887
 H        -4.260883        -4.270917        -1.764159
 H        -3.502376        -2.978770        -2.709484
 H        -2.430607        -4.117924        -1.819798
