19
Iteration:  3886
 C         1.417588        -0.102575        -0.595742
 C         0.008313        -0.108775        -0.077380
 C        -1.176277        -0.097382         0.192886
 C        -2.654014        -0.311068         0.351800
 O        -3.247656         0.780714         1.310202
 C        -3.273354        -0.776291        -0.912817
 O        -4.409031        -1.598570        -0.667154
 C        -3.246314        -2.222315        -1.203676
 C        -3.256926        -2.664936        -2.641054
 H         1.676926         0.663886        -1.147020
 H         2.066172        -0.026985         0.262074
 H         1.641751        -1.105027        -1.097376
 H        -2.587348        -1.105328         1.059118
 H        -2.695206         1.536266         1.014509
 H        -3.368236        -0.059113        -1.672257
 H        -2.861638        -2.938002        -0.520861
 H        -3.433808        -3.730485        -2.615381
 H        -3.736782        -2.012889        -3.399087
 H        -2.141134        -2.624735        -2.796069
