19
Iteration:  2971
 C         1.326731         0.247897        -0.408930
 C        -0.010549        -0.193418        -0.058766
 C        -1.164867        -0.241673         0.259516
 C        -2.569728        -0.339517         0.472166
 O        -3.066627         0.904893         0.787519
 C        -3.158725        -0.855524        -0.821043
 O        -4.417406        -1.567392        -0.702258
 C        -3.211545        -2.314147        -1.138562
 C        -3.528020        -2.858801        -2.496727
 H         1.911793        -0.658220        -0.849587
 H         1.314471         1.095693        -1.092406
 H         1.965758         0.663433         0.428308
 H        -2.832820        -1.082045         1.172491
 H        -2.383160         1.593674         0.842612
 H        -3.041711        -0.378080        -1.821699
 H        -2.817819        -3.081477        -0.445398
 H        -4.390706        -3.480316        -2.618552
 H        -3.630822        -1.957726        -3.025267
 H        -2.657648        -3.344097        -2.914353
