19
Iteration:  1778charge 0 multiplicity 1
 C         1.521781        -0.095352        -0.277789
 C         0.040423        -0.117913        -0.016071
 C        -1.140270        -0.136433        -0.012235
 C        -2.646004        -0.063219         0.247356
 O        -3.193342         1.266253         0.527036
 C        -3.494729        -0.836989        -0.812544
 O        -4.399826        -1.942932        -0.366842
 C        -3.185265        -2.283232        -1.075133
 C        -3.284689        -2.959254        -2.373192
 H         1.671016         0.554357        -1.171944
 H         2.028763         0.566855         0.401497
 H         2.018015        -1.067752        -0.285543
 H        -2.749519        -0.496430         1.235776
 H        -3.012642         1.884419        -0.211082
 H        -4.070401        -0.148969        -1.384618
 H        -2.221271        -2.675077        -0.564220
 H        -3.673787        -3.978525        -2.099086
 H        -3.988455        -2.532118        -3.061894
 H        -2.356696        -3.259071        -2.855711
