19
Iteration:   713charge 0 multiplicity 1
 C         1.436806         0.262868        -0.025072
 C         0.010769         0.028854        -0.149398
 C        -1.165671        -0.152589         0.136365
 C        -2.612612        -0.172308         0.198103
 O        -3.150347         1.168895         0.197028
 C        -3.059014        -1.043770        -0.976905
 O        -4.474634        -1.491069        -0.782058
 C        -3.412805        -2.436981        -0.809112
 C        -3.378602        -3.371248        -1.925407
 H         1.870106         0.881122        -0.866206
 H         1.520401         0.860107         0.921188
 H         2.170534        -0.540877        -0.078216
 H        -3.143693        -0.641711         1.121410
 H        -2.329435         1.688399         0.105250
 H        -2.910681        -0.764636        -2.059023
 H        -3.115671        -2.704724         0.203340
 H        -3.970006        -4.206243        -1.735355
 H        -3.693024        -2.966160        -2.874570
 H        -2.339395        -3.704360        -2.059151
