19
Iteration:   107
 C         1.630161         0.310689        -0.144345
 C         0.161753        -0.010756         0.162772
 C        -1.093003        -0.099651         0.063535
 C        -2.702932        -0.052355         0.083596
 O        -3.309310         1.135136         0.088695
 C        -3.128319        -1.045721        -0.966688
 O        -4.473249        -1.425802        -0.892088
 C        -3.496390        -2.422810        -0.688421
 C        -3.350238        -3.546802        -1.744134
 H         1.830946         1.263371         0.436351
 H         2.335865        -0.606020         0.045469
 H         1.842876         0.577354        -1.167948
 H        -3.010499        -0.513195         1.082019
 H        -2.915535         1.743777        -0.539301
 H        -2.688941        -0.840464        -1.930664
 H        -3.425898        -2.703616         0.419608
 H        -4.111254        -4.364925        -1.612806
 H        -3.305782        -3.297315        -2.815021
 H        -2.400322        -4.069881        -1.559110
