19
Iteration:  2673
 C         1.510195         0.228803        -0.242854
 C         0.075592        -0.018287        -0.003373
 C        -1.101944        -0.160370         0.236243
 C        -2.541570        -0.314287         0.302142
 O        -3.002110         0.974585         0.730305
 C        -3.319865        -0.847478        -0.883425
 O        -4.513409        -1.718986        -0.576805
 C        -3.384487        -2.314505        -1.197492
 C        -3.507987        -2.992069        -2.493502
 H         1.853099         1.010752         0.270957
 H         2.179017        -0.626265        -0.216961
 H         1.625690         0.628217        -1.294999
 H        -2.632065        -1.055469         1.175293
 H        -2.387009         1.663490         0.414241
 H        -3.529036        -0.240956        -1.710464
 H        -2.956781        -3.060857        -0.542396
 H        -3.995062        -3.974275        -2.289647
 H        -4.192083        -2.364679        -3.118889
 H        -2.584370        -2.941434        -3.022739
