19
Iteration:  2721charge 0 multiplicity 1
 C         1.440309         0.321503        -0.288884
 C         0.054713        -0.050646         0.033220
 C        -1.099044        -0.320554         0.116691
 C        -2.495674        -0.366399         0.412896
 O        -3.042682         0.933083         0.662644
 C        -3.165869        -0.919324        -0.797894
 O        -4.511169        -1.594873        -0.630992
 C        -3.369557        -2.359578        -1.059201
 C        -3.566910        -2.853119        -2.506097
 H         1.665556         1.478954        -0.062606
 H         2.074238        -0.281592         0.354017
 H         1.815982         0.144518        -1.257661
 H        -2.793701        -1.047999         1.215096
 H        -2.767809         1.545404        -0.041041
 H        -3.256221        -0.354267        -1.756767
 H        -2.842722        -3.114165        -0.537647
 H        -4.264915        -3.749285        -2.384799
 H        -3.934810        -2.217376        -3.314873
 H        -2.516460        -3.128797        -2.914878
