19
Iteration:  4977charge 0 multiplicity 1
 C         1.557037         0.183665        -0.068018
 C         0.157633        -0.117456        -0.064183
 C        -1.042798        -0.066683        -0.105336
 C        -2.449196        -0.514260         0.306870
 O        -3.047930         0.393775         1.250732
 C        -3.296410        -0.814431        -0.897438
 O        -4.435245        -1.598588        -0.552010
 C        -3.362329        -2.152753        -1.405866
 C        -3.831422        -2.444954        -2.785810
 H         1.633105         0.615452         0.978998
 H         2.308003        -0.653389        -0.056606
 H         1.720617         0.994610        -0.750057
 H        -2.292043        -1.555426         0.909405
 H        -2.591487         1.222450         1.039855
 H        -3.539139         0.064722        -1.688261
 H        -2.782162        -2.944126        -0.892610
 H        -4.360253        -3.324841        -3.054064
 H        -4.291955        -1.475673        -3.180015
 H        -2.967454        -2.451614        -3.508389
