19
Iteration:  3060charge 0 multiplicity 1
 C         1.499929        -0.020987        -0.291674
 C         0.062019         0.086167        -0.119154
 C        -1.116629        -0.144437        -0.091392
 C        -2.514257        -0.329544         0.388382
 O        -3.158402         0.979996         0.807268
 C        -3.407510        -0.947542        -0.778818
 O        -4.533121        -1.725014        -0.519860
 C        -3.285440        -2.342998        -1.112606
 C        -3.326783        -2.674020        -2.567294
 H         1.933773        -0.799267         0.574378
 H         1.719833        -0.385366        -1.322104
 H         1.990191         0.943699         0.034009
 H        -2.417983        -1.138683         1.074833
 H        -2.542220         1.336258         1.479329
 H        -3.449271        -0.207557        -1.667890
 H        -3.022371        -3.108425        -0.363665
 H        -3.588626        -3.658165        -2.795135
 H        -4.168495        -2.050239        -2.853338
 H        -2.441183        -2.418187        -3.162416
