19
Iteration:  4037charge 0 multiplicity 1
 C         1.502761         0.275322        -0.214165
 C         0.065621        -0.196016        -0.070595
 C        -1.083072        -0.277022         0.322964
 C        -2.502433        -0.373363         0.364549
 O        -2.984431         0.797547         0.762181
 C        -3.308161        -0.836929        -0.808992
 O        -4.441952        -1.777357        -0.438945
 C        -3.313508        -2.274447        -1.288998
 C        -3.673965        -2.505588        -2.838140
 H         1.979599        -0.185141        -1.150892
 H         1.468427         1.323445        -0.158838
 H         2.215933         0.035464         0.483353
 H        -2.750907        -1.196314         1.164953
 H        -2.689653         1.221211         1.568407
 H        -3.515442        -0.176915        -1.625487
 H        -2.928719        -3.160478        -0.830605
 H        -4.555916        -3.088986        -2.821488
 H        -3.887128        -1.631746        -3.431410
 H        -2.860988        -3.107792        -3.235549
