19
Iteration:  1285charge 0 multiplicity 1
 C         1.548066         0.163752        -0.135122
 C         0.037535         0.081188        -0.107019
 C        -1.118060        -0.102091         0.142737
 C        -2.550524        -0.178140         0.255491
 O        -3.165224         1.152704         0.184126
 C        -3.194666        -0.960061        -0.828137
 O        -4.443294        -1.615521        -0.507712
 C        -3.303686        -2.428199        -0.920443
 C        -3.537010        -3.220988        -2.224750
 H         1.935178         0.393783        -1.216968
 H         2.066816         0.874258         0.560742
 H         2.022850        -0.866124        -0.092363
 H        -2.965283        -0.809623         1.126589
 H        -3.531611         1.272053         1.114451
 H        -3.131783        -0.542114        -1.846467
 H        -2.783065        -2.983524        -0.043096
 H        -4.272654        -4.040153        -2.385060
 H        -3.822040        -2.516347        -3.088854
 H        -2.468729        -3.516249        -2.432815
