19
Iteration:  1690charge 0 multiplicity 1
 C         1.476650         0.083649        -0.391838
 C         0.083052        -0.192119         0.030211
 C        -1.074440        -0.056586         0.191758
 C        -2.512181        -0.142921         0.342339
 O        -3.248275         1.079677         0.248382
 C        -3.312641        -0.930314        -0.750830
 O        -4.471367        -1.687553        -0.439769
 C        -3.344906        -2.370617        -0.937432
 C        -3.331974        -2.948340        -2.378321
 H         1.712763         1.137844        -0.555428
 H         2.199235        -0.384337         0.230836
 H         1.703571        -0.325141        -1.388718
 H        -2.807655        -0.713576         1.234374
 H        -3.230059         1.523384         1.116870
 H        -3.498629        -0.358166        -1.641080
 H        -2.599302        -2.881031        -0.208025
 H        -3.730474        -3.966108        -2.467237
 H        -3.822423        -2.307668        -3.105283
 H        -2.327730        -3.196797        -2.702585
