19
Iteration:  1944
 C         1.359062         0.047971        -0.498636
 C        -0.057619        -0.151485        -0.227254
 C        -1.122524        -0.171573         0.328585
 C        -2.648397        -0.187816         0.466442
 O        -3.230300         1.154907         0.508438
 C        -3.109967        -0.837779        -0.825935
 O        -4.471769        -1.563341        -0.696669
 C        -3.165508        -2.284240        -1.006681
 C        -3.274506        -3.164992        -2.238760
 H         1.876835        -0.982788        -0.847002
 H         1.477911         0.674291        -1.356451
 H         1.856310         0.444933         0.411636
 H        -2.950497        -0.807332         1.324482
 H        -3.406346         1.279620         1.431107
 H        -2.924378        -0.076919        -1.595946
 H        -2.724624        -2.786907        -0.085472
 H        -4.053922        -3.972004        -2.030228
 H        -3.484843        -2.411761        -3.041128
 H        -2.310124        -3.702741        -2.458945
