19
Iteration:  1357
 C         1.552704         0.265877        -0.139098
 C         0.134206         0.130865        -0.186099
 C        -1.043463        -0.113664         0.065443
 C        -2.502014        -0.264138         0.254693
 O        -3.204179         0.995935         0.487861
 C        -3.200038        -0.984340        -0.948614
 O        -4.492394        -1.443954        -0.712144
 C        -3.480726        -2.428197        -0.911152
 C        -3.523666        -3.325717        -2.115591
 H         1.899853        -0.180155        -1.002158
 H         1.836256         1.331957        -0.178723
 H         2.057171        -0.259900         0.602557
 H        -2.717163        -0.700843         1.220686
 H        -2.516928         1.701560         0.341536
 H        -2.956355        -0.360912        -1.823021
 H        -3.146735        -2.841074         0.012652
 H        -4.169312        -4.172205        -1.873728
 H        -3.986036        -2.897505        -2.964941
 H        -2.512896        -3.698822        -2.270541
