19
Iteration:   666
 C         1.484457         0.136988        -0.239991
 C         0.072114         0.111150         0.230857
 C        -1.164418        -0.029527         0.197927
 C        -2.574322        -0.107559         0.161501
 O        -3.222388         1.223589         0.177938
 C        -3.133398        -0.993513        -0.965949
 O        -4.589052        -1.547765        -0.810825
 C        -3.462101        -2.457252        -0.845384
 C        -3.195692        -3.434636        -1.952411
 H         1.748272         0.868804        -1.014339
 H         2.406414         0.075503         0.510394
 H         1.549497        -0.688722        -0.989938
 H        -3.077280        -0.557973         1.094784
 H        -2.436517         1.804429         0.470728
 H        -2.728023        -0.583292        -1.959176
 H        -3.365765        -2.869852         0.254120
 H        -3.933517        -4.257285        -1.737301
 H        -3.364104        -3.270851        -3.015127
 H        -2.255907        -3.908648        -1.819953
