19
Iteration:   822
 C         1.565247         0.307171         0.088340
 C         0.108033         0.187741         0.001512
 C        -1.086130        -0.004348         0.015482
 C        -2.496507        -0.189959         0.175490
 O        -3.166568         1.110716         0.159007
 C        -3.142796        -1.087447        -0.867758
 O        -4.450240        -1.530252        -0.669114
 C        -3.352936        -2.483454        -0.904504
 C        -3.669844        -3.449551        -2.107087
 H         2.087423        -0.291075        -0.651434
 H         1.833395         1.392232         0.013541
 H         1.700192         0.104273         1.133234
 H        -2.779446        -0.686122         1.085090
 H        -2.701322         1.588559        -0.502553
 H        -3.022607        -0.594602        -1.863707
 H        -3.159953        -3.034153         0.020359
 H        -4.391811        -4.150419        -1.859868
 H        -4.118148        -2.884903        -2.898903
 H        -2.783734        -3.967456        -2.425146
