19
Iteration:  2018
 C         1.500991         0.163377        -0.537565
 C         0.067017         0.043936        -0.052321
 C        -1.072505        -0.258608         0.212222
 C        -2.500341        -0.309922         0.415440
 O        -3.197020         0.982316         0.574393
 C        -3.213242        -0.919041        -0.851966
 O        -4.691854        -1.361396        -0.836217
 C        -3.518625        -2.363561        -0.884313
 C        -3.149770        -3.144614        -2.177106
 H         2.249818        -0.407475        -0.017111
 H         1.579856         0.072223        -1.646556
 H         1.843464         1.205034        -0.294131
 H        -2.709131        -1.177412         1.165839
 H        -2.877255         1.505883         1.374781
 H        -2.900967        -0.449717        -1.798723
 H        -3.269039        -2.845676         0.038377
 H        -3.713717        -4.116779        -2.159979
 H        -3.332453        -2.610118        -3.067898
 H        -2.133700        -3.524514        -2.183272
