19
Iteration:  1328charge 0 multiplicity 1
 C         1.582712         0.248452        -0.177086
 C         0.194237        -0.052273         0.049586
 C        -1.020144        -0.029165        -0.015894
 C        -2.548483        -0.236827         0.156841
 O        -3.215110         1.066438         0.464664
 C        -3.242816        -1.022611        -0.979934
 O        -4.482909        -1.529278        -0.608620
 C        -3.425116        -2.457691        -0.895805
 C        -3.510687        -3.172941        -2.122848
 H         1.664192         0.133753        -1.354672
 H         1.744220         1.348047         0.140982
 H         2.380630        -0.340663         0.368310
 H        -2.694905        -0.627868         1.195476
 H        -3.613103         1.348696        -0.452591
 H        -3.083470        -0.457691        -1.932214
 H        -3.031157        -2.973723         0.061978
 H        -4.204098        -3.960392        -1.820120
 H        -3.908492        -2.633290        -3.017646
 H        -2.547622        -3.634886        -2.343980
