19
Iteration:  4437charge 0 multiplicity 1
 C         1.532979        -0.046862        -0.469443
 C         0.097619        -0.095523        -0.087167
 C        -1.070808        -0.202112         0.153315
 C        -2.572275        -0.357420         0.470079
 O        -3.284158         0.771828         1.128173
 C        -3.370048        -0.842336        -0.738718
 O        -4.448067        -1.793953        -0.507085
 C        -3.211846        -2.205526        -1.331125
 C        -3.424845        -2.377973        -2.867040
 H         1.934211         0.917807        -0.490443
 H         2.103542        -0.551150         0.310873
 H         1.779315        -0.755539        -1.340298
 H        -2.702455        -1.154709         1.209708
 H        -2.616428         1.229195         1.694873
 H        -3.538138        -0.099197        -1.498439
 H        -2.618508        -2.788629        -0.777041
 H        -4.081843        -3.151813        -3.229833
 H        -3.877753        -1.449635        -3.190450
 H        -2.549757        -2.210348        -3.441995
