19
Iteration:  3105charge 0 multiplicity 1
 C         1.499586        -0.025952        -0.286021
 C         0.010826        -0.203861        -0.244860
 C        -1.142596        -0.026493         0.118151
 C        -2.534216        -0.219021         0.336906
 O        -3.275314         0.872599         0.814493
 C        -3.357581        -0.846012        -0.736528
 O        -4.352771        -1.727326        -0.442648
 C        -3.163882        -2.198313        -1.215546
 C        -3.464866        -2.719012        -2.615752
 H         1.986469        -0.173948         0.770932
 H         1.989628        -0.843044        -0.895201
 H         1.767025         0.959094        -0.486243
 H        -2.701470        -1.037932         1.023009
 H        -2.638095         1.491245         1.211735
 H        -3.700178        -0.083204        -1.494369
 H        -2.469939        -2.805601        -0.692432
 H        -3.802260        -3.699080        -2.453150
 H        -4.137960        -2.253183        -3.341022
 H        -2.523211        -2.903885        -3.138360
