19
Iteration:  2951charge 0 multiplicity 1
 C         1.439869         0.238524        -0.458438
 C         0.070542        -0.003896        -0.024425
 C        -1.074766        -0.324588         0.305370
 C        -2.576893        -0.418330         0.458066
 O        -3.154633         0.996535         0.853215
 C        -3.121610        -0.908706        -0.823643
 O        -4.485401        -1.518683        -0.689662
 C        -3.414948        -2.394974        -1.131675
 C        -3.440208        -2.886010        -2.574470
 H         1.811030        -0.653874        -1.123504
 H         1.530815         1.197765        -0.917252
 H         2.084672         0.451779         0.287308
 H        -2.828742        -1.167454         1.236903
 H        -2.359893         1.507139         0.584270
 H        -3.227876        -0.220403        -1.710962
 H        -3.017435        -3.064299        -0.418410
 H        -4.324735        -3.561823        -2.608223
 H        -3.566568        -2.093560        -3.362406
 H        -2.555271        -3.550709        -2.856668
