19
Iteration:   562
 C         1.418483        -0.207434        -0.251893
 C         0.049980         0.039415         0.174555
 C        -1.210687         0.097690         0.036144
 C        -2.702591         0.007233         0.158130
 O        -3.329035         1.240666         0.125890
 C        -3.275396        -0.870844        -0.937780
 O        -4.532934        -1.594015        -0.715035
 C        -3.279744        -2.411031        -0.749080
 C        -2.917495        -3.399022        -1.938766
 H         2.128600         0.530119         0.159643
 H         1.753745        -1.197025        -0.282736
 H         1.373485         0.047242        -1.357349
 H        -2.973909        -0.466004         1.151224
 H        -2.935639         1.869910         0.815996
 H        -3.056821        -0.475038        -1.932711
 H        -2.919223        -2.738675         0.169764
 H        -3.571927        -4.300922        -1.841780
 H        -3.306584        -2.813333        -2.833986
 H        -1.812816        -3.742829        -1.813328
