19
Iteration:  2229charge 0 multiplicity 1
 C         1.551331         0.319759        -0.213667
 C         0.084076         0.019995         0.148769
 C        -1.117805        -0.213336        -0.092278
 C        -2.453810        -0.255049         0.238710
 O        -2.972030         1.038116         0.554837
 C        -3.440943        -0.878566        -0.945145
 O        -4.534168        -1.758267        -0.532388
 C        -3.323426        -2.323777        -1.034268
 C        -3.579176        -3.147928        -2.370813
 H         1.611478         1.507241        -0.343732
 H         2.136758         0.019707         0.643241
 H         1.845948        -0.175771        -1.140798
 H        -2.627235        -0.851432         1.065870
 H        -2.394602         1.424267         1.261773
 H        -3.667653        -0.232846        -1.828495
 H        -2.597880        -2.637752        -0.198987
 H        -4.347963        -3.832406        -2.042884
 H        -3.945634        -2.294304        -2.988571
 H        -2.664347        -3.549719        -2.844469
