19
Iteration:  1789
 C         1.557958        -0.045270        -0.277083
 C         0.065699        -0.236635        -0.013459
 C        -1.192653        -0.091097        -0.093052
 C        -2.698613        -0.056546         0.265122
 O        -3.192493         1.276831         0.550278
 C        -3.518050        -0.864369        -0.738740
 O        -4.387988        -1.931149        -0.364967
 C        -3.135698        -2.203520        -1.098531
 C        -3.289836        -2.987921        -2.392827
 H         1.777530         0.201453        -1.339174
 H         1.958447         0.573160         0.508071
 H         2.136257        -0.978112        -0.186383
 H        -2.711270        -0.551961         1.223417
 H        -3.318724         1.771297        -0.326208
 H        -3.760884        -0.271417        -1.606028
 H        -2.475134        -2.701859        -0.291145
 H        -3.628353        -4.008825        -2.081877
 H        -3.990376        -2.620138        -3.115125
 H        -2.276477        -3.004676        -2.835957
