19
Iteration:  1047charge 0 multiplicity 1
 C         1.393809        -0.181260        -0.363058
 C        -0.044694         0.007395        -0.134324
 C        -1.193314         0.030766         0.229980
 C        -2.707775        -0.058514         0.405197
 O        -3.337346         1.243735         0.388503
 C        -3.153660        -0.941160        -0.853653
 O        -4.407833        -1.551447        -0.835372
 C        -3.207882        -2.421263        -0.845752
 C        -3.098372        -3.239347        -2.022319
 H         2.052491        -0.084623         0.541323
 H         1.407934        -1.179581        -0.881896
 H         1.578814         0.654746        -1.092122
 H        -3.110012        -0.609182         1.265542
 H        -2.880692         1.638373        -0.367722
 H        -2.970693        -0.406623        -1.779614
 H        -3.032704        -3.050276         0.037594
 H        -3.754202        -4.081831        -1.932870
 H        -3.260126        -2.544677        -2.827254
 H        -2.080405        -3.639583        -2.090078
