19
Iteration:   229
 C         1.555963         0.246535        -0.145456
 C         0.114177         0.074060         0.156639
 C        -1.129040        -0.056806         0.118554
 C        -2.598995        -0.145573         0.163673
 O        -3.300197         1.185071         0.014378
 C        -3.113775        -0.984255        -1.037997
 O        -4.446591        -1.485122        -0.837526
 C        -3.454361        -2.445113        -0.757541
 C        -3.373755        -3.529371        -1.742339
 H         1.595968         0.720211        -1.131946
 H         2.138422         0.804954         0.634908
 H         2.017355        -0.736205        -0.257090
 H        -3.076052        -0.657327         1.040168
 H        -2.727784         1.842265         0.390217
 H        -2.965843        -0.613092        -2.026028
 H        -3.105822        -2.763849         0.269053
 H        -4.187383        -4.226683        -1.679324
 H        -3.385357        -3.233690        -2.805009
 H        -2.471760        -4.118877        -1.634275
