19
Iteration:  4218
 C         1.517198         0.278673        -0.358727
 C         0.127308        -0.065027         0.048823
 C        -1.048866        -0.285532         0.220844
 C        -2.458418        -0.539861         0.489465
 O        -3.052850         0.598960         0.935644
 C        -3.225755        -0.823033        -0.816122
 O        -4.582338        -1.544050        -0.759919
 C        -3.389998        -2.193069        -1.248512
 C        -3.584685        -2.607343        -2.668716
 H         2.384466        -0.141377         0.103488
 H         1.602581         0.044092        -1.496459
 H         1.599705         1.489632        -0.368887
 H        -2.584771        -1.428171         1.262902
 H        -2.612538         1.008611         1.706714
 H        -3.382014         0.108616        -1.485272
 H        -3.161098        -2.988420        -0.518458
 H        -4.598856        -3.023397        -2.995124
 H        -3.564313        -1.612060        -3.303880
 H        -2.867070        -3.414066        -2.989430
