19
Iteration:  1287charge 0 multiplicity 1
 C         1.554164         0.168472        -0.129977
 C         0.038295         0.073214        -0.093941
 C        -1.122990        -0.102273         0.131374
 C        -2.549944        -0.191589         0.250007
 O        -3.164994         1.153847         0.195006
 C        -3.200352        -0.962098        -0.836159
 O        -4.442292        -1.600307        -0.500254
 C        -3.303291        -2.431701        -0.931870
 C        -3.528317        -3.213999        -2.215038
 H         1.901807         0.382128        -1.179211
 H         2.018063         0.885157         0.462012
 H         2.051034        -0.839720        -0.111593
 H        -2.847082        -0.837808         1.172455
 H        -3.634206         1.297662         0.987932
 H        -3.107254        -0.558859        -1.839744
 H        -2.814995        -3.010058        -0.106597
 H        -4.292651        -4.033644        -2.364590
 H        -3.861679        -2.541578        -3.110766
 H        -2.453334        -3.553009        -2.405174
