19
Iteration:  1826
 C         1.374506        -0.133881        -0.215010
 C        -0.070757        -0.140072        -0.317665
 C        -1.222939        -0.067947         0.001341
 C        -2.664531        -0.117712         0.273187
 O        -3.161283         1.176397         0.540162
 C        -3.310547        -0.855118        -0.813787
 O        -4.335005        -1.788508        -0.323047
 C        -3.134106        -2.308300        -0.985835
 C        -3.261157        -2.870442        -2.328235
 H         1.981757        -0.132082        -1.107290
 H         1.801523         0.795186         0.158596
 H         1.575843        -0.980919         0.459755
 H        -2.987129        -0.744774         1.124148
 H        -3.561446         1.525862        -0.296103
 H        -3.449028        -0.452051        -1.868378
 H        -2.465347        -3.027436        -0.365736
 H        -3.219574        -3.929493        -2.368212
 H        -4.068341        -2.434334        -2.959117
 H        -2.300148        -2.784312        -2.886829
