19
Iteration:   197charge 0 multiplicity 1
 C         1.519513         0.295054        -0.136665
 C         0.136039        -0.020903         0.203143
 C        -1.084216         0.086895         0.098234
 C        -2.519825        -0.146580         0.144427
 O        -3.268200         1.091549         0.052074
 C        -3.186825        -1.048408        -1.033982
 O        -4.515086        -1.394476        -0.882144
 C        -3.545733        -2.431236        -0.705501
 C        -3.297031        -3.583402        -1.747557
 H         1.476139         1.220178        -0.824504
 H         2.365446         0.503367         0.633001
 H         1.894205        -0.608606        -0.747824
 H        -2.923160        -0.622933         1.064437
 H        -2.573244         1.786961        -0.164864
 H        -3.086238        -0.763907        -2.044173
 H        -3.335362        -2.759989         0.285317
 H        -4.105039        -4.289300        -1.773003
 H        -3.186755        -3.123256        -2.745634
 H        -2.373574        -4.183146        -1.565422
