19
Iteration:  1545charge 0 multiplicity 1
 C         1.599017         0.229755        -0.442555
 C         0.220096        -0.004877         0.021501
 C        -1.036835        -0.067808         0.114520
 C        -2.514455        -0.302895         0.296078
 O        -3.301406         0.935989         0.601786
 C        -3.126812        -0.956488        -0.913922
 O        -4.524504        -1.400146        -0.750725
 C        -3.550876        -2.379179        -0.886610
 C        -3.414713        -3.217287        -2.131316
 H         2.196705         0.205594         0.433057
 H         1.812768        -0.505646        -1.311817
 H         1.698565         1.233570        -0.792195
 H        -2.693876        -0.591198         1.377567
 H        -3.708515         1.161319        -0.224993
 H        -2.914127        -0.290594        -1.813411
 H        -3.340324        -2.970724         0.099030
 H        -4.142833        -4.045076        -2.226401
 H        -3.503649        -2.571539        -3.092056
 H        -2.404859        -3.692101        -2.034599
