19
Iteration:  1728
 C         1.359122        -0.018546        -0.324157
 C        -0.050354         0.039431        -0.152495
 C        -1.221434        -0.156783         0.234267
 C        -2.605306        -0.128169         0.385248
 O        -3.147776         1.210769         0.317602
 C        -3.227346        -0.897409        -0.761324
 O        -4.316489        -1.829284        -0.438890
 C        -3.153023        -2.429026        -0.993082
 C        -3.461611        -2.958048        -2.404474
 H         1.856130         0.881274        -0.765379
 H         1.911437        -0.162965         0.721748
 H         1.446417        -1.023779        -0.846061
 H        -2.763155        -0.473477         1.471035
 H        -2.457032         1.859063         0.651917
 H        -3.176193        -0.207756        -1.663317
 H        -2.563684        -3.106529        -0.352536
 H        -4.005814        -3.929237        -2.430185
 H        -4.103377        -2.199000        -2.934067
 H        -2.505810        -3.043965        -2.999519
