19
Iteration:  4863
 C         1.405910         0.341127        -0.419881
 C         0.095725        -0.192669        -0.128034
 C        -1.019887        -0.492312         0.317660
 C        -2.496896        -0.615118         0.576061
 O        -3.128241         0.478585         1.191319
 C        -3.073587        -0.862484        -0.803174
 O        -4.501007        -1.322270        -0.802997
 C        -3.500046        -2.174548        -1.275468
 C        -3.516435        -2.441218        -2.785816
 H         2.279834         0.059390         0.132656
 H         1.601864         0.121968        -1.470920
 H         1.384932         1.468444        -0.470871
 H        -2.659170        -1.579078         1.298578
 H        -2.799101         1.251774         0.707976
 H        -2.771764        -0.122705        -1.507261
 H        -3.158460        -3.053269        -0.656053
 H        -4.237487        -3.265243        -2.958361
 H        -3.876258        -1.510925        -3.117367
 H        -2.542088        -2.529106        -3.204526
