19
Iteration:  3569
 C         1.593162         0.272866        -0.242649
 C         0.151421        -0.033604         0.015388
 C        -1.071549        -0.274902         0.053421
 C        -2.481933        -0.379723         0.322896
 O        -3.206617         0.682906         0.848950
 C        -3.180078        -0.892811        -0.864073
 O        -4.402413        -1.568172        -0.573320
 C        -3.345684        -2.221052        -1.208448
 C        -3.768576        -2.758685        -2.565472
 H         2.379623        -0.329914         0.090867
 H         1.724935         0.552809        -1.287378
 H         1.864287         1.131535         0.442746
 H        -2.448529        -1.237509         1.138804
 H        -2.687133         1.503641         0.774947
 H        -3.121056        -0.221676        -1.787772
 H        -3.055513        -3.128393        -0.607781
 H        -4.537132        -3.529800        -2.440615
 H        -4.304787        -1.858547        -3.022617
 H        -2.936894        -3.160079        -3.112631
