19
Iteration:  4594charge 0 multiplicity 1
 C         1.455350        -0.024075        -0.256384
 C         0.027056        -0.152669        -0.149899
 C        -1.173728        -0.190408         0.188728
 C        -2.617330        -0.446271         0.431551
 O        -2.973997         0.842283         1.068012
 C        -3.446815        -0.851533        -0.685301
 O        -4.334555        -2.020184        -0.412262
 C        -3.307662        -2.166239        -1.443183
 C        -3.520593        -2.189524        -2.929908
 H         1.639034         0.135593        -1.418645
 H         1.811352         0.994686         0.115454
 H         2.084756        -0.845010         0.028327
 H        -2.584760        -1.167823         1.338909
 H        -2.362403         1.500259         0.657824
 H        -3.878315        -0.031701        -1.375412
 H        -2.354898        -2.640592        -1.116237
 H        -3.929363        -3.165425        -3.239833
 H        -4.194898        -1.483667        -3.338770
 H        -2.396826        -2.113038        -3.261150
