19
Iteration:  2835
 C         1.503567         0.244909        -0.313722
 C         0.100806         0.089258        -0.045683
 C        -1.064590        -0.170596         0.134767
 C        -2.467011        -0.355845         0.365496
 O        -3.173740         0.723133         1.021613
 C        -3.206592        -0.867644        -1.034298
 O        -4.547979        -1.299360        -0.758724
 C        -3.354384        -2.337966        -1.137877
 C        -3.510442        -3.137539        -2.422177
 H         1.469384         0.548082        -1.301086
 H         2.118818         0.874379         0.369342
 H         2.001892        -0.796925        -0.332759
 H        -2.574110        -1.192119         0.974445
 H        -2.775050         1.483202         0.557933
 H        -3.113193        -0.263520        -1.906027
 H        -2.943793        -2.754893        -0.202788
 H        -4.183767        -3.897162        -2.157583
 H        -3.904180        -2.603483        -3.281088
 H        -2.675751        -3.631601        -2.751936
