19
Iteration:  2564
 C         1.467188        -0.057520        -0.384615
 C         0.091095         0.077271         0.002707
 C        -1.155084        -0.054520         0.083242
 C        -2.605251        -0.279524         0.376035
 O        -3.252820         1.037561         0.674825
 C        -3.322302        -0.867649        -0.853920
 O        -4.442601        -1.684632        -0.561152
 C        -3.185895        -2.319936        -1.094032
 C        -3.347699        -2.927798        -2.424900
 H         2.052504        -0.698968         0.316470
 H         1.598559        -0.559081        -1.381194
 H         1.867008         0.999589        -0.569401
 H        -2.759644        -0.907196         1.235036
 H        -2.720730         1.085237         1.492635
 H        -3.337088        -0.227674        -1.713064
 H        -2.569703        -2.770829        -0.346353
 H        -4.127725        -3.732491        -2.414743
 H        -3.863936        -2.311302        -3.228825
 H        -2.429811        -3.246884        -2.936398
