19
Iteration:  4264charge 0 multiplicity 1
 C         1.332428         0.262203        -0.499654
 C         0.043471        -0.099176        -0.029984
 C        -1.086927        -0.446868         0.250170
 C        -2.504354        -0.587128         0.667387
 O        -3.107587         0.754255         0.965510
 C        -3.130866        -0.898908        -0.698815
 O        -4.453082        -1.394761        -0.694048
 C        -3.451184        -2.260417        -1.288567
 C        -3.442311        -2.592124        -2.826678
 H         2.003016         0.240875         0.373414
 H         1.829402        -0.375161        -1.241214
 H         1.369765         1.320393        -0.861691
 H        -2.643661        -1.394314         1.485026
 H        -2.467780         1.235483         1.534067
 H        -2.945848        -0.142187        -1.443554
 H        -3.021628        -3.096334        -0.692095
 H        -4.304342        -3.169342        -3.176619
 H        -3.563079        -1.634497        -3.374530
 H        -2.519123        -3.162017        -3.096359
