19
Iteration:  2750
 C         1.449705         0.338104        -0.255830
 C         0.043966        -0.094674        -0.218760
 C        -1.043000        -0.270161         0.240216
 C        -2.472439        -0.331707         0.367657
 O        -3.140560         0.854309         0.683705
 C        -3.162056        -0.975830        -0.809693
 O        -4.474339        -1.479613        -0.615644
 C        -3.413877        -2.410862        -0.995612
 C        -3.514654        -2.842776        -2.543282
 H         1.573519         1.356021        -0.182103
 H         1.916026         0.092198         0.715034
 H         2.158864        -0.103866        -1.032013
 H        -2.746044        -1.135738         1.159742
 H        -2.773241         1.601418         0.166349
 H        -3.138547        -0.451757        -1.751239
 H        -3.185767        -3.297227        -0.354096
 H        -4.339329        -3.579236        -2.541038
 H        -3.843719        -2.000244        -3.149108
 H        -2.542164        -3.311217        -2.808778
