19
Iteration:   388
 C         1.451835        -0.032150        -0.026594
 C        -0.100941        -0.044755        -0.209555
 C        -1.249133         0.029895         0.211071
 C        -2.752601         0.069581         0.290302
 O        -3.177626         1.363242        -0.039838
 C        -3.240177        -0.991070        -0.858011
 O        -4.382914        -1.795096        -0.615955
 C        -3.087329        -2.414356        -0.826988
 C        -3.258604        -3.373978        -2.036772
 H         1.958002        -1.013436         0.136786
 H         1.948665         0.436762        -0.869310
 H         1.592393         0.768600         0.777430
 H        -3.244007        -0.220726         1.238712
 H        -2.494671         1.980857        -0.194762
 H        -3.180284        -0.494473        -1.825397
 H        -2.722370        -2.864257         0.095430
 H        -3.889888        -4.050839        -1.469583
 H        -3.908035        -2.817424        -2.718107
 H        -2.358387        -3.612460        -2.499853
