19
Iteration:  2249charge 0 multiplicity 1
 C         1.499779         0.291015        -0.194014
 C         0.096587        -0.026161         0.071729
 C        -1.077655        -0.168271        -0.095755
 C        -2.559355        -0.279886         0.219791
 O        -2.996038         1.048847         0.510443
 C        -3.379317        -0.918239        -0.860666
 O        -4.505662        -1.694449        -0.453271
 C        -3.369237        -2.347780        -1.023673
 C        -3.495257        -3.046701        -2.426860
 H         1.486268         1.316100        -0.738354
 H         2.199060         0.309610         0.616353
 H         1.750504        -0.386219        -1.002231
 H        -2.632944        -0.959082         1.072392
 H        -2.609446         1.200951         1.411582
 H        -3.530944        -0.076366        -1.583973
 H        -2.977110        -3.153376        -0.192126
 H        -4.165487        -3.903160        -2.219413
 H        -3.682611        -2.441029        -3.368270
 H        -2.503800        -3.509759        -2.478528
