19
Iteration:  4695charge 0 multiplicity 1
 C         1.483372        -0.092230        -0.479739
 C         0.084169         0.037606        -0.020683
 C        -1.098950        -0.137809         0.190798
 C        -2.465992        -0.437121         0.539279
 O        -3.234382         0.563735         1.276463
 C        -3.273547        -0.812410        -0.735338
 O        -4.522532        -1.601119        -0.668046
 C        -3.247645        -2.204346        -1.355967
 C        -3.469367        -2.406083        -2.894917
 H         1.542475        -0.873134        -1.328508
 H         1.686200         0.768974        -1.191702
 H         2.262217        -0.123563         0.236328
 H        -2.304281        -1.333045         1.255828
 H        -2.838756         1.426832         1.096170
 H        -3.411022         0.052139        -1.424818
 H        -2.740982        -3.126705        -0.966458
 H        -3.900947        -3.397046        -3.017996
 H        -4.015108        -1.543351        -3.360194
 H        -2.428262        -2.520862        -3.203438
