19
Iteration:  2622charge 0 multiplicity 1
 C         1.475179         0.082150        -0.221774
 C         0.078359        -0.075515        -0.247275
 C        -1.086560        -0.063940         0.020767
 C        -2.531220        -0.296369         0.359329
 O        -3.252772         0.913498         0.664359
 C        -3.305714        -0.885942        -0.862928
 O        -4.455665        -1.635076        -0.500473
 C        -3.299367        -2.362315        -1.025865
 C        -3.408012        -2.838581        -2.460644
 H         1.798746         0.411691         0.926678
 H         1.843811        -0.872810        -0.586634
 H         1.913760         0.907808        -0.726962
 H        -2.475527        -0.881967         1.244834
 H        -2.653311         1.507989         1.144812
 H        -3.432526        -0.314245        -1.804443
 H        -2.657878        -2.966324        -0.370057
 H        -3.904908        -3.830605        -2.516578
 H        -3.900865        -2.033344        -2.979573
 H        -2.384272        -2.985983        -2.972087
