19
Iteration:  2868charge 0 multiplicity 1
 C         1.537053         0.287069        -0.309459
 C         0.075938        -0.106232        -0.288019
 C        -1.073028        -0.164600         0.145902
 C        -2.532039        -0.378383         0.524919
 O        -3.249051         0.738562         1.003970
 C        -3.114384        -0.904861        -0.966697
 O        -4.473928        -1.300870        -0.827857
 C        -3.407778        -2.320044        -1.035052
 C        -3.489783        -3.015372        -2.418154
 H         1.910675         0.327058        -1.288993
 H         1.764282         1.310601         0.049624
 H         2.107803        -0.618603         0.152897
 H        -2.577488        -1.151023         1.254360
 H        -3.221708         1.377726         0.271906
 H        -2.964220        -0.291855        -1.815388
 H        -2.976254        -3.016222        -0.278003
 H        -4.097633        -3.878246        -2.377413
 H        -3.920007        -2.404486        -3.220579
 H        -2.521190        -3.311562        -2.676761
