19
Iteration:  1837
 C         1.414498        -0.162543        -0.205516
 C        -0.070784        -0.030934        -0.381557
 C        -1.184579        -0.094508         0.021704
 C        -2.649845        -0.110243         0.353192
 O        -3.218712         1.193160         0.548001
 C        -3.332117        -0.893547        -0.872287
 O        -4.367277        -1.759195        -0.377443
 C        -3.125040        -2.399958        -0.898681
 C        -3.218155        -2.899171        -2.391130
 H         1.781280        -0.577357        -1.138759
 H         1.800308         0.769788         0.183271
 H         1.783494        -0.918015         0.507511
 H        -2.741183        -0.667857         1.302804
 H        -3.396241         1.532406        -0.321233
 H        -3.561634        -0.128133        -1.690139
 H        -2.357933        -2.861168        -0.126381
 H        -3.561728        -3.906147        -2.406485
 H        -4.137222        -2.405644        -2.824096
 H        -2.348932        -2.572585        -2.996407
