19
Iteration:   142
 C         1.417717         0.246077        -0.052247
 C        -0.041058         0.147378        -0.272597
 C        -1.191609         0.038247         0.187949
 C        -2.618462        -0.141628         0.258556
 O        -3.057953         1.182157         0.126225
 C        -2.978949        -1.071381        -0.870620
 O        -4.436156        -1.481051        -0.989997
 C        -3.457237        -2.468809        -0.724774
 C        -3.410895        -3.564582        -1.761949
 H         1.726408         1.277733         0.321933
 H         1.697774        -0.348448         0.902684
 H         2.105766         0.033113        -0.905895
 H        -3.078301        -0.532023         1.172749
 H        -2.924834         1.495506        -0.760335
 H        -2.593359        -1.012313        -1.841580
 H        -3.476402        -2.834538         0.259043
 H        -4.225686        -4.229244        -1.473351
 H        -3.619458        -3.133197        -2.746394
 H        -2.446120        -4.024994        -1.588022
