19
Iteration:  4867
 C         1.404194         0.324477        -0.430023
 C         0.084117        -0.198094        -0.085785
 C        -1.047954        -0.472961         0.291375
 C        -2.472725        -0.599690         0.577614
 O        -3.125610         0.463526         1.191776
 C        -3.081274        -0.905066        -0.821580
 O        -4.488762        -1.317755        -0.793201
 C        -3.504161        -2.178975        -1.288152
 C        -3.529708        -2.437419        -2.772698
 H         2.274419         0.109628         0.275600
 H         1.658740         0.193430        -1.517884
 H         1.410803         1.413811        -0.487835
 H        -2.486290        -1.378298         1.282413
 H        -2.850700         1.308948         0.767968
 H        -2.807981        -0.072284        -1.637788
 H        -3.036149        -3.027781        -0.709627
 H        -4.316596        -3.174065        -2.905965
 H        -3.922445        -1.469604        -3.185216
 H        -2.433652        -2.531694        -3.164309
