19
Iteration:  2737
 C         1.475415         0.335541        -0.219231
 C         0.062269        -0.087319        -0.170128
 C        -1.078354        -0.238739         0.197383
 C        -2.576057        -0.459184         0.403983
 O        -3.080704         0.896855         0.666499
 C        -3.192964        -0.950433        -0.879819
 O        -4.449490        -1.522721        -0.597305
 C        -3.386267        -2.407436        -1.081692
 C        -3.527928        -2.833334        -2.446734
 H         1.451383         1.383521        -0.249411
 H         2.109749        -0.087253         0.622919
 H         1.858152         0.028698        -1.297133
 H        -2.835889        -0.990866         1.346370
 H        -2.692655         1.384183        -0.081822
 H        -2.973053        -0.230515        -1.661545
 H        -3.082561        -3.007228        -0.132769
 H        -4.231721        -3.580572        -2.682343
 H        -3.845327        -1.874205        -2.933150
 H        -2.694009        -3.214964        -2.953528
