19
Iteration:   973charge 0 multiplicity 1
 C         1.493332         0.137128        -0.262125
 C         0.031823        -0.190091        -0.047373
 C        -1.152498        -0.161866         0.155570
 C        -2.643655        -0.205157         0.213170
 O        -3.369085         1.170804         0.230413
 C        -3.174778        -0.891092        -0.908636
 O        -4.500433        -1.468422        -0.768121
 C        -3.304227        -2.346666        -0.791088
 C        -3.141119        -3.263069        -1.965482
 H         1.852940        -0.533951         0.448264
 H         1.622478        -0.158053        -1.366058
 H         1.844366         1.132533        -0.094371
 H        -2.762723        -0.757508         1.216458
 H        -2.862298         1.693021         0.823199
 H        -2.998034        -0.323136        -1.848439
 H        -3.047281        -2.796073         0.211405
 H        -3.847650        -4.222247        -1.902970
 H        -3.281135        -2.733615        -2.956768
 H        -2.035629        -3.365162        -1.953328
