19
Iteration:  2495
 C         1.395086        -0.003000        -0.521922
 C         0.008725        -0.156638        -0.064056
 C        -1.206724        -0.153926         0.237519
 C        -2.644192        -0.305784         0.467105
 O        -3.170233         1.092479         0.694289
 C        -3.287218        -0.851354        -0.747679
 O        -4.460411        -1.636522        -0.678581
 C        -3.246241        -2.330836        -1.051245
 C        -3.154398        -2.866572        -2.367341
 H         1.946577        -0.879383        -0.547046
 H         1.373313         0.383256        -1.590160
 H         1.768046         0.860742         0.120780
 H        -2.726626        -0.854907         1.418960
 H        -3.116046         1.782594        -0.009995
 H        -3.116893        -0.391753        -1.748286
 H        -2.793456        -2.997285        -0.204042
 H        -3.687884        -3.833960        -2.489928
 H        -3.882113        -2.313403        -2.991300
 H        -2.166036        -2.919705        -2.903368
