19
Iteration:  2518charge 0 multiplicity 1
 C         1.398140         0.036332        -0.463661
 C        -0.035760        -0.203060        -0.155051
 C        -1.174722        -0.223996         0.266224
 C        -2.622381        -0.216189         0.528609
 O        -3.302184         1.107955         0.693378
 C        -3.135864        -0.805228        -0.808455
 O        -4.427674        -1.599160        -0.594969
 C        -3.113830        -2.320726        -1.097896
 C        -3.309041        -2.964754        -2.434279
 H         1.837709        -0.882154        -0.222807
 H         1.549217         0.024717        -1.608470
 H         1.773176         1.049637        -0.014996
 H        -2.863970        -0.908510         1.325866
 H        -2.854108         1.930191         0.464859
 H        -3.368769        -0.205727        -1.724052
 H        -2.645033        -3.104039        -0.377306
 H        -3.761160        -3.994912        -2.553700
 H        -3.916194        -2.534433        -3.294945
 H        -2.263274        -3.025646        -2.858720
