19
Iteration:  1723charge 0 multiplicity 1
 C         1.467761        -0.004453        -0.346929
 C        -0.062723         0.005610        -0.136776
 C        -1.202265        -0.154900         0.249366
 C        -2.596865        -0.111277         0.395620
 O        -3.181205         1.211400         0.299528
 C        -3.236173        -0.918860        -0.708816
 O        -4.329646        -1.805726        -0.487280
 C        -3.177032        -2.457534        -0.970574
 C        -3.459333        -2.935503        -2.423119
 H         1.817436         0.936058        -0.748065
 H         1.741503        -0.192465         0.618062
 H         1.479313        -0.887808        -0.941400
 H        -2.914416        -0.443756         1.373893
 H        -2.547917         1.746204         0.752617
 H        -3.239426        -0.358802        -1.614071
 H        -2.406613        -3.127113        -0.399656
 H        -4.022437        -3.844242        -2.216764
 H        -4.141730        -2.292234        -2.930082
 H        -2.499358        -2.988151        -2.877075
