19
Iteration:   649
 C         1.406762         0.077400        -0.289314
 C         0.058467        -0.044258         0.135881
 C        -1.158748         0.062269         0.265571
 C        -2.630201        -0.116401         0.189522
 O        -3.270352         1.182144         0.112478
 C        -3.162328        -0.993274        -0.997403
 O        -4.478240        -1.446167        -0.796246
 C        -3.385240        -2.470844        -0.761348
 C        -3.185215        -3.420020        -1.916748
 H         1.579479         1.144819        -0.524813
 H         2.048984        -0.033583         0.541009
 H         1.635352        -0.659925        -1.071495
 H        -2.896718        -0.686235         1.058567
 H        -2.631249         1.802583         0.608354
 H        -2.925383        -0.544503        -1.983145
 H        -3.201462        -2.881426         0.176181
 H        -3.869053        -4.273904        -1.931365
 H        -3.084952        -2.813787        -2.844325
 H        -2.118794        -3.838392        -1.899156
