19
Iteration:  1958charge 0 multiplicity 1
 C         1.367454         0.069287        -0.538828
 C        -0.093542        -0.161867        -0.208588
 C        -1.151966        -0.143910         0.327846
 C        -2.604605        -0.195511         0.480548
 O        -3.170830         1.147920         0.549633
 C        -3.157480        -0.877593        -0.843613
 O        -4.369545        -1.482847        -0.733880
 C        -3.344908        -2.377190        -0.929535
 C        -3.226830        -3.152392        -2.267033
 H         2.043895        -0.882056        -0.572493
 H         1.533271         0.758995        -1.449129
 H         1.701381         0.677885         0.349560
 H        -2.957587        -0.778706         1.314300
 H        -3.451437         1.418726         1.455131
 H        -3.091419        -0.349266        -1.862556
 H        -3.061113        -3.109733         0.029061
 H        -3.909358        -4.028369        -2.240412
 H        -3.584407        -2.677387        -3.281428
 H        -2.140668        -3.474850        -2.327712
