19
Iteration:  2597charge 0 multiplicity 1
 C         1.547305        -0.029581        -0.268188
 C         0.161442         0.013436        -0.151521
 C        -1.098390         0.042601        -0.006702
 C        -2.532286        -0.271602         0.355213
 O        -3.300525         0.996854         0.677205
 C        -3.289249        -0.904819        -0.805281
 O        -4.520108        -1.711818        -0.501841
 C        -3.364996        -2.332154        -1.069684
 C        -3.362998        -2.896493        -2.498756
 H         2.068389        -0.007587         0.707282
 H         1.865878        -0.829372        -0.970457
 H         1.803168         0.998771        -0.637726
 H        -2.470456        -0.858808         1.264330
 H        -2.869856         1.209520         1.523133
 H        -3.574765        -0.228698        -1.550199
 H        -2.723623        -2.934156        -0.518711
 H        -3.806096        -3.913616        -2.639608
 H        -3.700589        -2.151077        -3.272644
 H        -2.310429        -3.185378        -2.649785
