19
Iteration:   372charge 0 multiplicity 1
 C         1.372112         0.060286        -0.013224
 C        -0.064254        -0.012731        -0.172902
 C        -1.217468        -0.021025         0.173852
 C        -2.719714        -0.003986         0.229870
 O        -3.194949         1.403508        -0.035421
 C        -3.176598        -0.925881        -0.824357
 O        -4.423756        -1.712944        -0.605089
 C        -3.096855        -2.457998        -0.855805
 C        -3.294468        -3.429906        -2.002177
 H         1.582493        -1.017476        -0.082861
 H         1.961654         0.624892        -0.783000
 H         1.750176         0.249551         0.934390
 H        -2.998652        -0.331539         1.243354
 H        -2.341890         1.868480         0.067913
 H        -3.130217        -0.414267        -1.818844
 H        -2.600512        -2.906413         0.013704
 H        -3.727315        -4.402735        -1.731542
 H        -3.932831        -3.085092        -2.823054
 H        -2.411362        -4.005977        -2.493666
