19
Iteration:   619charge 0 multiplicity 1
 C         1.348529         0.034772        -0.253297
 C        -0.001794        -0.103318        -0.132611
 C        -1.175126        -0.124657         0.216916
 C        -2.677709        -0.067016         0.316348
 O        -3.407393         1.200962         0.002312
 C        -3.077044        -0.927715        -0.820947
 O        -4.406653        -1.461758        -0.845681
 C        -3.190954        -2.435416        -0.735363
 C        -3.134182        -3.265882        -1.854551
 H         1.898902         0.955755        -0.111003
 H         1.602063        -0.536448         0.636084
 H         1.806394        -0.457705        -1.188412
 H        -2.981259        -0.593357         1.242758
 H        -3.095747         1.670190         0.744177
 H        -2.645005        -0.346753        -1.587337
 H        -3.169997        -2.944331         0.260481
 H        -4.028988        -3.970070        -1.714418
 H        -3.298960        -2.830135        -2.897160
 H        -2.278450        -3.972144        -2.036676
