19
Iteration:  4662
 C         1.441453        -0.053333        -0.397822
 C         0.001466        -0.106525        -0.054918
 C        -1.128629        -0.159603         0.284996
 C        -2.480724        -0.415345         0.438817
 O        -3.140499         0.628088         1.210730
 C        -3.318322        -0.768157        -0.794095
 O        -4.348396        -1.724097        -0.514574
 C        -3.235756        -2.136871        -1.411331
 C        -3.527315        -2.366201        -2.878261
 H         1.509054        -0.728270        -1.364098
 H         1.627981         1.001799        -0.742269
 H         2.167731        -0.510230         0.243096
 H        -2.672706        -1.339639         1.059339
 H        -3.017877         1.440566         0.695299
 H        -3.582082         0.074338        -1.480886
 H        -2.411307        -2.671303        -0.854083
 H        -3.837555        -3.387868        -3.163225
 H        -4.383236        -1.928237        -3.420046
 H        -2.706225        -2.242757        -3.602772
