19
Iteration:   423charge 0 multiplicity 1
 C         1.462029        -0.102481        -0.127326
 C        -0.025829         0.010502         0.192534
 C        -1.256099        -0.047519         0.023280
 C        -2.740053        -0.015220         0.078962
 O        -3.245675         1.283089        -0.019889
 C        -3.310630        -0.945474        -0.950488
 O        -4.472670        -1.658523        -0.349012
 C        -3.183055        -2.430425        -0.826764
 C        -3.046278        -3.211215        -2.050335
 H         2.076182        -0.895848         0.291522
 H         1.496667        -0.085471        -1.246921
 H         1.999472         0.830147         0.264962
 H        -3.171587        -0.399918         1.022306
 H        -2.756628         1.832728        -0.593023
 H        -3.401355        -0.633819        -1.947928
 H        -2.684994        -2.943032         0.069152
 H        -3.474509        -4.177058        -2.089077
 H        -3.412526        -2.888414        -3.005262
 H        -2.097307        -3.601055        -2.222340
