19
Iteration:  1680charge 0 multiplicity 1
 C         1.461603         0.070158        -0.419863
 C         0.157481        -0.159966         0.087943
 C        -1.124125        -0.084759         0.114305
 C        -2.601338        -0.203879         0.241272
 O        -3.233774         1.070099         0.302591
 C        -3.279622        -0.941655        -0.808880
 O        -4.470929        -1.622515        -0.389203
 C        -3.349898        -2.370297        -1.011063
 C        -3.296494        -2.948949        -2.306418
 H         1.657310         1.163729        -0.175761
 H         2.242539        -0.326271         0.131982
 H         1.621866        -0.264251        -1.469758
 H        -2.657247        -0.765444         1.250417
 H        -3.257355         1.431267         1.178670
 H        -3.492538        -0.265561        -1.607216
 H        -2.882979        -3.047281        -0.101160
 H        -3.821316        -3.894702        -2.288045
 H        -3.630432        -2.412475        -3.153458
 H        -2.227611        -2.992637        -2.429487
