19
Iteration:  3215
 C         1.409982         0.050908        -0.399155
 C         0.040534        -0.275931        -0.149354
 C        -1.149604        -0.217778         0.158393
 C        -2.605393        -0.274421         0.473830
 O        -3.215057         0.927728         0.638279
 C        -3.321968        -0.908400        -0.694567
 O        -4.406780        -1.750014        -0.492690
 C        -3.187235        -2.286164        -1.150461
 C        -3.326698        -2.473574        -2.557650
 H         1.787258         0.944445        -0.038636
 H         2.068123        -0.787187        -0.033136
 H         1.516378        -0.053637        -1.465459
 H        -2.903175        -1.015937         1.359171
 H        -2.687524         1.576207         1.177636
 H        -3.403572        -0.245236        -1.568794
 H        -2.673019        -3.050966        -0.580136
 H        -3.703773        -3.444134        -2.700956
 H        -4.076526        -1.784454        -2.885482
 H        -2.400482        -2.255543        -3.036881
