19
Iteration:  2206charge 0 multiplicity 1
 C         1.580484         0.355983        -0.131559
 C         0.087007         0.030150        -0.119097
 C        -1.088062        -0.243082         0.065792
 C        -2.544400        -0.306497         0.241446
 O        -3.055575         1.066772         0.581894
 C        -3.346124        -0.902886        -0.910595
 O        -4.419517        -1.670460        -0.504466
 C        -3.376407        -2.363142        -1.148578
 C        -3.652199        -3.154648        -2.323832
 H         1.791126         1.484634         0.137073
 H         1.946546        -0.302346         0.641963
 H         2.028782         0.102275        -1.095087
 H        -2.870237        -0.889765         1.039755
 H        -2.218443         1.536715         0.778132
 H        -3.438904        -0.427201        -1.913942
 H        -2.622168        -2.879197        -0.452733
 H        -4.200879        -4.020385        -1.966672
 H        -4.188515        -2.471750        -3.030366
 H        -2.657867        -3.350846        -2.739950
