19
Iteration:  2506charge 0 multiplicity 1
 C         1.357363         0.007619        -0.510527
 C         0.011139        -0.183594        -0.103798
 C        -1.188327        -0.237441         0.219447
 C        -2.617029        -0.153115         0.482396
 O        -3.275823         1.070987         0.711084
 C        -3.211323        -0.872091        -0.736289
 O        -4.397800        -1.633807        -0.661522
 C        -3.218226        -2.287725        -1.035144
 C        -3.243516        -2.933529        -2.474681
 H         2.021188        -0.754521        -0.269685
 H         1.441443         0.313159        -1.591773
 H         1.847626         0.826758         0.110308
 H        -2.915599        -0.710836         1.395016
 H        -2.743889         1.632589         0.106458
 H        -3.156690        -0.061737        -1.517738
 H        -2.817930        -2.941649        -0.154690
 H        -3.587190        -3.953889        -2.243914
 H        -3.885264        -2.275683        -3.072356
 H        -2.220978        -3.038073        -2.920978
