19
Iteration:  3397charge 0 multiplicity 1
 C         1.429799         0.096301        -0.445433
 C         0.020709         0.141528         0.009416
 C        -1.112521        -0.152334         0.268100
 C        -2.499022        -0.392395         0.424813
 O        -3.105655         0.741762         0.895697
 C        -3.117484        -0.856349        -0.875538
 O        -4.440511        -1.488243        -0.691649
 C        -3.432321        -2.405913        -1.152223
 C        -3.529762        -2.826380        -2.591656
 H         1.510099         0.117477        -1.572038
 H         1.972917         1.016788        -0.189273
 H         2.030874        -0.612538        -0.024409
 H        -2.441398        -1.157128         1.295234
 H        -2.596049         1.247639         1.537275
 H        -3.048253        -0.220078        -1.792322
 H        -2.940493        -3.114593        -0.498331
 H        -4.393430        -3.497839        -2.724878
 H        -3.973784        -1.821506        -2.994375
 H        -2.603723        -3.156610        -3.218433
