19
Iteration:  1431
 C         1.575456         0.408299        -0.334730
 C         0.206528        -0.084534         0.007513
 C        -1.057096        -0.115446         0.108873
 C        -2.463293        -0.327494         0.271610
 O        -3.150758         0.982656         0.476301
 C        -3.232456        -0.956371        -0.951860
 O        -4.549733        -1.348592        -0.835235
 C        -3.498828        -2.426568        -0.874717
 C        -3.491222        -3.299917        -2.043863
 H         2.322110        -0.414383        -0.607983
 H         1.374156         1.067238        -1.178955
 H         2.093728         0.999923         0.472537
 H        -2.450927        -0.994071         1.194327
 H        -3.780918         1.024586         1.172323
 H        -2.936327        -0.437862        -1.846521
 H        -3.709035        -2.940126         0.003800
 H        -4.370703        -4.033920        -2.156969
 H        -3.347207        -2.730619        -2.965697
 H        -2.561268        -3.935937        -1.830389
