19
Iteration:  2288charge 0 multiplicity 1
 C         1.564400         0.215371        -0.253488
 C         0.032618        -0.039705        -0.328711
 C        -1.121851        -0.211974         0.169706
 C        -2.521368        -0.300623         0.400239
 O        -3.224345         0.964336         0.466477
 C        -3.212093        -0.926597        -0.754568
 O        -4.488861        -1.640928        -0.587422
 C        -3.362501        -2.352159        -0.954870
 C        -3.410460        -2.877336        -2.343483
 H         1.860280         0.976024        -0.922271
 H         1.898378         0.620526         0.761643
 H         2.292318        -0.626874        -0.501240
 H        -2.705883        -0.895202         1.351410
 H        -2.717506         1.612212         0.945653
 H        -3.376891        -0.424132        -1.680911
 H        -3.005552        -3.030318        -0.301939
 H        -4.084511        -3.771533        -2.370070
 H        -3.981512        -2.281436        -3.015355
 H        -2.505469        -3.325440        -2.832989
