19
Iteration:  2125charge 0 multiplicity 1
 C         1.590029         0.243597        -0.248691
 C         0.208970         0.131531         0.088691
 C        -1.002105        -0.006212        -0.037893
 C        -2.467188        -0.284774         0.317652
 O        -3.186369         0.907020         0.557835
 C        -3.204735        -1.040664        -0.886093
 O        -4.564428        -1.494268        -0.509448
 C        -3.502830        -2.420564        -0.997024
 C        -3.535092        -3.113153        -2.362899
 H         2.159950         0.615302         0.533507
 H         2.080697        -0.774089        -0.468942
 H         1.700611         0.904887        -1.132674
 H        -2.660630        -1.022050         0.995009
 H        -3.552097         1.123582        -0.347299
 H        -3.246173        -0.456478        -1.788004
 H        -3.033302        -3.175626        -0.182059
 H        -4.197737        -3.988986        -2.481172
 H        -3.892033        -2.422037        -3.112142
 H        -2.498672        -3.402028        -2.542261
