19
Iteration:    34
 C         1.437942         0.157370        -0.006124
 C         0.014592         0.131794        -0.179925
 C        -1.188287         0.025068         0.118559
 C        -2.591770         0.119969         0.205080
 O        -3.156718         1.294354         0.055466
 C        -3.080141        -1.045605        -0.856826
 O        -4.386153        -1.599691        -0.898130
 C        -3.433440        -2.582989        -0.713699
 C        -3.391122        -3.616659        -1.794243
 H         1.773636        -0.018703         1.031505
 H         1.924373        -0.573853        -0.653567
 H         1.813319         1.144197        -0.392456
 H        -2.982007        -0.340620         1.073012
 H        -2.567169         1.950968        -0.271481
 H        -2.821243        -0.749354        -1.875880
 H        -3.496066        -2.992129         0.279390
 H        -4.129070        -4.380590        -1.570506
 H        -3.715062        -3.160857        -2.732024
 H        -2.436058        -4.128623        -1.983573
