19
Iteration:  4106charge 0 multiplicity 1
 C         1.628729         0.202729        -0.090337
 C         0.181421         0.009033        -0.062871
 C        -1.030160        -0.101390         0.110200
 C        -2.512583        -0.432528         0.279140
 O        -3.040996         0.609250         0.915073
 C        -3.381040        -0.815679        -0.864349
 O        -4.450637        -1.609011        -0.466238
 C        -3.499411        -2.254234        -1.281470
 C        -3.691818        -2.681695        -2.791252
 H         2.042194        -0.696052        -0.371249
 H         1.759348         1.064125        -0.750970
 H         2.140539         0.512355         0.885672
 H        -2.522826        -1.438500         0.848640
 H        -2.245118         1.053085         1.271963
 H        -3.552966        -0.219651        -1.748604
 H        -3.070948        -3.032658        -0.693718
 H        -3.999143        -3.767744        -2.983130
 H        -4.432342        -2.009493        -3.220567
 H        -2.701857        -2.477804        -3.272582
