19
Iteration:  3365
 C         1.533413         0.052211        -0.494251
 C         0.075906         0.049489        -0.084797
 C        -1.094525        -0.091350         0.199595
 C        -2.479802        -0.385357         0.532136
 O        -3.326668         0.745493         0.871959
 C        -3.144058        -0.891552        -0.793940
 O        -4.488686        -1.494412        -0.607381
 C        -3.384552        -2.334802        -1.174849
 C        -3.447572        -2.782327        -2.648253
 H         1.711329         0.319332        -1.525104
 H         2.073616         0.757805         0.160512
 H         2.055667        -0.974078        -0.352409
 H        -2.550656        -1.232531         1.360930
 H        -2.712068         1.424152         1.240187
 H        -2.885984        -0.015896        -1.446786
 H        -2.943296        -3.063057        -0.539972
 H        -4.121457        -3.618981        -2.653594
 H        -3.950540        -1.842009        -3.035215
 H        -2.454743        -3.055682        -3.137417
