19
Iteration:  1776charge 0 multiplicity 1
 C         1.506025        -0.100154        -0.279761
 C         0.047377        -0.094713        -0.026354
 C        -1.142438        -0.140441         0.004582
 C        -2.615011        -0.058826         0.253960
 O        -3.191400         1.260183         0.517123
 C        -3.488973        -0.832289        -0.817640
 O        -4.391854        -1.942262        -0.366559
 C        -3.188166        -2.281997        -1.068715
 C        -3.290473        -2.973400        -2.375765
 H         1.598605         0.585488        -1.152368
 H         2.060954         0.621240         0.481550
 H         1.920855        -1.139775        -0.305359
 H        -2.862680        -0.579763         1.247054
 H        -2.932746         1.849415        -0.179602
 H        -4.158724        -0.217071        -1.443417
 H        -2.290404        -2.630859        -0.562195
 H        -3.751800        -4.011842        -2.113645
 H        -4.011789        -2.448075        -3.058553
 H        -2.288318        -3.221323        -2.875573
