19
Iteration:  3783charge 0 multiplicity 1
 C         1.301097         0.036916        -0.675304
 C         0.020625        -0.217011        -0.038050
 C        -1.116786        -0.243965         0.331917
 C        -2.545283        -0.371534         0.592262
 O        -3.188558         0.798901         0.910576
 C        -3.302541        -0.824225        -0.612434
 O        -4.440136        -1.600318        -0.728001
 C        -3.267586        -2.209891        -1.230235
 C        -3.214648        -2.586218        -2.636223
 H         1.577947         1.061888        -0.232054
 H         1.915746        -0.786269        -0.327624
 H         1.263574         0.148063        -1.720600
 H        -2.756971        -1.038542         1.415872
 H        -2.560398         1.436361         0.539326
 H        -3.192872        -0.015669        -1.436362
 H        -2.953149        -2.969868        -0.414929
 H        -4.076650        -3.335192        -2.678882
 H        -3.596229        -1.676444        -3.246049
 H        -2.170312        -2.907773        -2.864965
