19
Iteration:  2478charge 0 multiplicity 1
 C         1.345781         0.023380        -0.540285
 C         0.043726        -0.074735        -0.047178
 C        -1.191298        -0.164214         0.240509
 C        -2.629949        -0.206265         0.410676
 O        -3.066203         1.030722         0.718152
 C        -3.306693        -0.937990        -0.812965
 O        -4.559721        -1.648963        -0.658529
 C        -3.327042        -2.349381        -0.957986
 C        -3.071922        -2.833808        -2.423089
 H         1.782187        -1.092214        -0.628290
 H         1.361441         0.467229        -1.535639
 H         2.001276         0.518298         0.225023
 H        -2.888905        -0.909812         1.262078
 H        -3.312064         1.532686        -0.125082
 H        -3.319670        -0.284190        -1.686146
 H        -2.982340        -2.801552        -0.107979
 H        -3.380279        -3.892397        -2.631126
 H        -3.701870        -2.085101        -3.016635
 H        -2.006797        -2.929669        -2.412245
