19
Iteration:   674
 C         1.492883         0.114114        -0.245821
 C         0.089406         0.193397         0.221723
 C        -1.099651        -0.079786         0.159081
 C        -2.654538        -0.088490         0.236479
 O        -3.181764         1.211948         0.179192
 C        -3.149561        -0.987199        -0.989540
 O        -4.582215        -1.556902        -0.850743
 C        -3.449010        -2.449597        -0.846821
 C        -3.274701        -3.473111        -1.924694
 H         1.583409         1.035882        -0.808554
 H         2.215591         0.248316         0.542639
 H         1.649904        -0.864780        -0.757405
 H        -2.877470        -0.604307         1.153900
 H        -2.454771         1.866405         0.366243
 H        -2.894099        -0.500937        -1.915268
 H        -3.216727        -3.011587         0.100116
 H        -3.877076        -4.426460        -1.727510
 H        -3.289051        -3.039150        -2.973046
 H        -2.194280        -3.805271        -1.857480
