19
Iteration:  2383
 C         1.363646        -0.016168        -0.479240
 C        -0.046619        -0.042555        -0.121924
 C        -1.180460        -0.133974         0.141287
 C        -2.578400        -0.227663         0.401954
 O        -3.313270         1.007798         0.824008
 C        -3.204980        -0.800778        -0.868106
 O        -4.373123        -1.555441        -0.680251
 C        -3.227313        -2.284834        -1.105243
 C        -3.233472        -3.071248        -2.301955
 H         1.423418        -0.463867        -1.488664
 H         1.776566         0.988766        -0.570504
 H         1.987540        -0.623681         0.156614
 H        -2.764616        -0.857744         1.289875
 H        -2.647733         1.685771         0.747115
 H        -3.110999        -0.093134        -1.690263
 H        -2.632989        -2.833224        -0.253571
 H        -3.887110        -3.902035        -2.159296
 H        -3.712628        -2.549584        -3.095906
 H        -2.273707        -3.541007        -2.509021
