19
Iteration:  2075
 C         1.488117         0.261774        -0.326051
 C         0.016435        -0.013487        -0.205065
 C        -1.127732        -0.207571         0.147326
 C        -2.558019        -0.242612         0.340246
 O        -3.172268         1.023244         0.750079
 C        -3.130854        -0.897379        -0.905050
 O        -4.408057        -1.527247        -0.834135
 C        -3.290220        -2.391691        -0.885729
 C        -3.528972        -3.163978        -2.214772
 H         2.055097         0.015927         0.656206
 H         1.999311        -0.399439        -0.989125
 H         1.750253         1.259230        -0.716591
 H        -2.897653        -1.066294         1.180721
 H        -3.106243         1.636759         0.025987
 H        -2.998382        -0.173399        -1.764262
 H        -2.999864        -3.025417        -0.095801
 H        -4.540999        -3.637138        -2.088939
 H        -3.759854        -2.641115        -3.178913
 H        -2.745788        -3.925383        -2.372501
