19
Iteration:  4022
 C         1.487522         0.264587        -0.287711
 C         0.163687        -0.184838        -0.014461
 C        -1.004571        -0.349853         0.296880
 C        -2.522991        -0.492322         0.435999
 O        -3.101988         0.912319         0.755222
 C        -3.377186        -0.925444        -0.807161
 O        -4.416797        -1.731413        -0.485396
 C        -3.376442        -2.257751        -1.339465
 C        -3.612741        -2.515215        -2.750050
 H         1.852187         0.096571        -1.309342
 H         1.659564         1.377087        -0.203605
 H         2.124428        -0.242296         0.483942
 H        -2.821238        -1.195259         1.218459
 H        -2.482697         1.150381         1.469053
 H        -3.654503         0.050228        -1.360145
 H        -2.589451        -2.885754        -0.769700
 H        -4.523580        -3.093304        -2.971977
 H        -3.666372        -1.528629        -3.279899
 H        -2.790911        -2.996745        -3.269792
