19
Iteration:   380
 C         1.434733         0.043094        -0.013075
 C        -0.062071        -0.040915        -0.235579
 C        -1.264873         0.010138         0.217560
 C        -2.766590         0.066302         0.260299
 O        -3.194115         1.378634        -0.035832
 C        -3.182189        -0.968216        -0.826530
 O        -4.431003        -1.758775        -0.614858
 C        -3.074001        -2.413310        -0.850185
 C        -3.268216        -3.414979        -2.042765
 H         1.807938        -0.972812         0.013899
 H         1.966971         0.351914        -0.934604
 H         1.676938         0.371602         1.054890
 H        -3.093796        -0.179042         1.287511
 H        -2.300381         1.678566        -0.000468
 H        -3.109413        -0.549252        -1.776541
 H        -2.592808        -2.883859         0.103471
 H        -3.867930        -4.204691        -1.476187
 H        -3.999028        -2.937405        -2.733127
 H        -2.402411        -3.847354        -2.546615
