19
Iteration:  2627
 C         1.441544         0.085657        -0.188367
 C         0.107633        -0.051288        -0.250482
 C        -1.104016        -0.126530         0.007004
 C        -2.526250        -0.318246         0.324620
 O        -3.266288         0.939445         0.681823
 C        -3.248850        -0.896611        -0.853923
 O        -4.450784        -1.638007        -0.516090
 C        -3.284198        -2.354035        -1.015520
 C        -3.442910        -2.848144        -2.464352
 H         1.731351         0.410268         0.745160
 H         1.940101        -0.845887        -0.556824
 H         1.855541         0.916361        -0.846233
 H        -2.557049        -0.953782         1.278935
 H        -2.643853         1.579970         1.079544
 H        -3.413344        -0.155195        -1.682031
 H        -2.567167        -2.879257        -0.276558
 H        -3.943945        -3.809932        -2.476177
 H        -3.924714        -2.037653        -3.060927
 H        -2.434558        -2.829607        -2.842862
