19
Iteration:  4196charge 0 multiplicity 1
 C         1.515168         0.260647        -0.290310
 C         0.139377         0.010332        -0.031037
 C        -1.026091        -0.360176         0.072132
 C        -2.461877        -0.538253         0.457010
 O        -3.150077         0.679406         1.065132
 C        -3.210516        -0.833163        -0.863807
 O        -4.513022        -1.464238        -0.600769
 C        -3.395664        -2.208646        -1.372921
 C        -3.624424        -2.723550        -2.735776
 H         2.026772        -0.433179         0.324560
 H         1.820219         0.225652        -1.400224
 H         1.767904         1.357300         0.117848
 H        -2.668649        -1.317677         1.293330
 H        -2.566284         1.011130         1.760798
 H        -2.976625         0.083219        -1.543709
 H        -3.002765        -2.931172        -0.655419
 H        -4.503283        -3.413024        -2.936832
 H        -3.863925        -1.819283        -3.441031
 H        -2.764557        -3.385170        -3.040459
