19
Iteration:  3315charge 0 multiplicity 1
 C         1.423806         0.045913        -0.440594
 C         0.007488        -0.107812        -0.113578
 C        -1.204089        -0.205055         0.084736
 C        -2.574688        -0.318622         0.385146
 O        -3.210340         0.851930         0.979887
 C        -3.311870        -0.826838        -0.832987
 O        -4.371376        -1.572560        -0.583347
 C        -3.270694        -2.288517        -1.112011
 C        -3.331983        -2.724291        -2.620079
 H         1.678613         0.783735        -1.235001
 H         2.069952         0.223295         0.439020
 H         1.743586        -0.868334        -0.903117
 H        -2.573632        -1.062519         1.178913
 H        -2.492874         1.339773         1.421227
 H        -3.454372        -0.091895        -1.602056
 H        -2.630306        -2.954457        -0.479444
 H        -3.894547        -3.677044        -2.552297
 H        -3.787735        -1.976225        -3.215268
 H        -2.322281        -2.971396        -2.870957
