19
Iteration:   668charge 0 multiplicity 1
 C         1.488277         0.126242        -0.238250
 C         0.076203         0.135555         0.232174
 C        -1.148545        -0.044736         0.185840
 C        -2.590231        -0.095041         0.178581
 O        -3.213226         1.220601         0.179834
 C        -3.134068        -0.989460        -0.977935
 O        -4.595849        -1.553424        -0.817994
 C        -3.460040        -2.466629        -0.844639
 C        -3.221176        -3.441387        -1.944988
 H         1.723359         0.930368        -0.996388
 H         2.388908         0.132078         0.508614
 H         1.562710        -0.711155        -0.938438
 H        -3.060420        -0.568853         1.125181
 H        -2.429477         1.800787         0.447047
 H        -2.710986        -0.520999        -1.937105
 H        -3.343307        -2.899958         0.183936
 H        -3.874875        -4.259214        -1.723785
 H        -3.310433        -3.250530        -2.991148
 H        -2.246652        -3.889960        -1.850462
