19
Iteration:  3223
 C         1.373999         0.013891        -0.392530
 C         0.017605        -0.281257        -0.140404
 C        -1.157139        -0.213822         0.125614
 C        -2.628134        -0.332629         0.458252
 O        -3.167353         0.939769         0.671926
 C        -3.302626        -0.907772        -0.722580
 O        -4.472536        -1.717730        -0.458839
 C        -3.170819        -2.279411        -1.075484
 C        -3.278536        -2.504366        -2.613165
 H         1.621037         1.013966        -0.127732
 H         2.097510        -0.588425         0.157559
 H         1.562775         0.115230        -1.602130
 H        -2.724539        -1.009579         1.275721
 H        -2.742686         1.685413         1.136809
 H        -3.364317        -0.209595        -1.616947
 H        -2.410401        -2.897203        -0.589043
 H        -3.673844        -3.451204        -2.846938
 H        -4.083516        -1.781595        -2.889623
 H        -2.409000        -2.267014        -3.249242
