19
Iteration:  1847charge 0 multiplicity 1
 C         1.447974        -0.196787        -0.249542
 C        -0.006421         0.023205        -0.338012
 C        -1.213274        -0.078262         0.038602
 C        -2.601668        -0.127157         0.325106
 O        -3.272415         1.193226         0.552166
 C        -3.319637        -0.930084        -0.715961
 O        -4.378738        -1.781429        -0.463262
 C        -3.156494        -2.328149        -0.965389
 C        -3.248255        -2.937104        -2.365964
 H         1.945684        -0.524912        -1.181950
 H         1.955724         0.729119        -0.156114
 H         1.478173        -0.831929         0.629675
 H        -2.735255        -0.576791         1.298769
 H        -3.188772         1.684890        -0.256054
 H        -3.590944        -0.402624        -1.663886
 H        -2.604941        -2.748908         0.008334
 H        -3.425847        -3.988115        -2.501834
 H        -4.035981        -2.236273        -2.711380
 H        -2.316521        -2.684688        -2.908075
