19
Iteration:  1820
 C         1.400093        -0.120299        -0.234223
 C        -0.074415        -0.180299        -0.269126
 C        -1.250052        -0.059659        -0.005448
 C        -2.646802        -0.125412         0.227449
 O        -3.154164         1.189300         0.533750
 C        -3.314215        -0.896947        -0.783956
 O        -4.308750        -1.806849        -0.331236
 C        -3.150435        -2.250101        -1.011700
 C        -3.261913        -2.898084        -2.355578
 H         1.925839        -0.135667        -1.218664
 H         1.594105         0.839762         0.395805
 H         1.641056        -0.968927         0.430910
 H        -2.816966        -0.723348         1.172615
 H        -3.589417         1.568069        -0.212443
 H        -3.555491        -0.422734        -1.732534
 H        -2.587730        -2.756294        -0.297773
 H        -3.399211        -4.026199        -2.166649
 H        -4.058902        -2.457006        -2.956137
 H        -2.277150        -2.550866        -2.737491
