19
Iteration:  1304charge 0 multiplicity 1
 C         1.499219         0.195692        -0.209762
 C         0.128098        -0.018006         0.053492
 C        -1.084199        -0.049148        -0.005803
 C        -2.537726        -0.192168         0.255384
 O        -3.128289         1.112332         0.280121
 C        -3.183575        -0.989950        -0.901137
 O        -4.460442        -1.552900        -0.502695
 C        -3.369434        -2.432843        -0.919716
 C        -3.478006        -3.206710        -2.226262
 H         1.788893         0.392257        -1.271903
 H         1.778290         1.069176         0.538397
 H         2.080724        -0.599154         0.244212
 H        -2.912392        -0.642669         1.173161
 H        -4.051180         0.782538         0.290399
 H        -3.361725        -0.313910        -1.767928
 H        -3.006165        -2.947009         0.001753
 H        -4.240896        -3.902675        -1.932639
 H        -3.830388        -2.606762        -3.007830
 H        -2.614438        -3.739905        -2.547570
