19
Iteration:  4432charge 0 multiplicity 1
 C         1.496644        -0.086534        -0.451416
 C         0.113509        -0.089148        -0.123725
 C        -1.101845        -0.175307         0.145383
 C        -2.538499        -0.354088         0.477168
 O        -3.272872         0.744358         1.127716
 C        -3.343640        -0.836544        -0.722116
 O        -4.474752        -1.798419        -0.543082
 C        -3.188112        -2.178819        -1.311956
 C        -3.457037        -2.353955        -2.859022
 H         1.792872         1.023418        -0.430737
 H         2.174332        -0.557882         0.308627
 H         1.792145        -0.611137        -1.343671
 H        -2.638355        -1.177611         1.266663
 H        -2.669025         1.292823         1.644139
 H        -3.489554        -0.054320        -1.545758
 H        -2.551388        -2.995003        -0.693978
 H        -4.030137        -3.287753        -3.166806
 H        -3.956923        -1.398735        -3.266596
 H        -2.350248        -2.376670        -3.237220
