19
Iteration:  1277charge 0 multiplicity 1
 C         1.530793         0.140181        -0.177670
 C         0.088229         0.115947        -0.141699
 C        -1.098950        -0.099703         0.193016
 C        -2.586220        -0.140364         0.266981
 O        -3.171669         1.146543         0.188391
 C        -3.185606        -0.971153        -0.871364
 O        -4.440206        -1.668531        -0.530867
 C        -3.328410        -2.450697        -0.862877
 C        -3.517336        -3.203287        -2.256118
 H         1.930384         0.550228        -1.091507
 H         1.911648         0.606186         0.660729
 H         1.795969        -0.897071         0.113549
 H        -3.129275        -0.545152         1.172522
 H        -3.031326         1.388103         1.102185
 H        -3.295224        -0.357947        -1.761120
 H        -2.842794        -2.919064        -0.012508
 H        -4.198613        -4.095044        -2.166223
 H        -3.745928        -2.334887        -2.958210
 H        -2.540269        -3.612706        -2.676243
