19
Iteration:   761charge 0 multiplicity 1
 C         1.528116         0.431439         0.055708
 C         0.160898        -0.007276         0.075661
 C        -1.051573        -0.139314        -0.075409
 C        -2.538968        -0.251559         0.173707
 O        -3.127692         1.125097         0.174510
 C        -3.219891        -0.951660        -0.948239
 O        -4.537515        -1.574817        -0.716070
 C        -3.467267        -2.429037        -0.846023
 C        -3.494170        -3.358597        -1.978204
 H         2.070276         0.406322        -0.904852
 H         1.635286         1.356315         0.558755
 H         2.246802        -0.339396         0.456973
 H        -2.711756        -0.703985         1.186414
 H        -2.904417         1.304257        -0.745509
 H        -3.260478        -0.569269        -1.940072
 H        -3.255968        -2.815846         0.152756
 H        -4.277887        -4.208756        -1.831605
 H        -3.562218        -2.829664        -2.988347
 H        -2.453012        -3.809498        -2.058641
