19
Iteration:  3834
 C         1.334792        -0.111416        -0.601312
 C        -0.082774        -0.077540        -0.232575
 C        -1.168641        -0.151495         0.345120
 C        -2.573604        -0.373966         0.630088
 O        -3.226241         0.824330         1.086951
 C        -3.158450        -0.810951        -0.780144
 O        -4.455140        -1.627651        -0.680039
 C        -3.241220        -2.192032        -1.207074
 C        -3.194864        -2.609977        -2.671146
 H         1.667110         0.957776        -0.781966
 H         2.027514        -0.605947         0.128202
 H         1.321111        -0.666167        -1.577084
 H        -2.640545        -1.164056         1.452933
 H        -3.112505         1.341286         0.268408
 H        -3.031130        -0.064856        -1.534306
 H        -2.843853        -2.924241        -0.514009
 H        -4.095156        -3.174867        -2.938188
 H        -3.207716        -1.679631        -3.104354
 H        -2.278774        -3.127679        -2.960059
