19
Iteration:  3974charge 0 multiplicity 1
 C         1.459152         0.082449        -0.374874
 C         0.010897        -0.052084        -0.026751
 C        -1.144172        -0.197122         0.222344
 C        -2.564361        -0.442904         0.524082
 O        -3.029714         0.857845         0.885099
 C        -3.282538        -0.848517        -0.834434
 O        -4.507124        -1.719005        -0.589462
 C        -3.326791        -2.314867        -1.192800
 C        -3.452276        -2.536471        -2.745965
 H         1.475374         0.316866        -1.414069
 H         1.800596         1.068750         0.030569
 H         2.187777        -0.798470        -0.057542
 H        -2.640549        -1.273841         1.158065
 H        -2.187222         1.163023         1.280118
 H        -3.365613        -0.094547        -1.544065
 H        -2.809533        -3.071458        -0.673520
 H        -3.973682        -3.476794        -3.132079
 H        -3.994926        -1.716653        -3.263225
 H        -2.414674        -2.520003        -3.234656
