19
Iteration:  2148charge 0 multiplicity 1
 C         1.632433         0.258275        -0.146359
 C         0.192624         0.118270        -0.066743
 C        -1.018425        -0.073859        -0.038828
 C        -2.471071        -0.260431         0.247978
 O        -3.230378         0.923286         0.550067
 C        -3.200791        -1.061691        -0.803933
 O        -4.483148        -1.594012        -0.582573
 C        -3.481790        -2.454495        -0.932928
 C        -3.606873        -3.000031        -2.338280
 H         2.076723         0.933880         0.552062
 H         2.270200        -0.666459        -0.073273
 H         1.817311         0.691957        -1.163607
 H        -2.620240        -0.910997         1.030797
 H        -3.418463         1.441659        -0.256997
 H        -2.988607        -0.653612        -1.780641
 H        -3.204482        -3.093470         0.055130
 H        -4.182955        -3.919040        -2.525653
 H        -4.296361        -2.246482        -2.721210
 H        -2.696246        -3.043829        -2.920608
