19
Iteration:  4650
 C         1.449112        -0.012982        -0.386174
 C         0.075296        -0.179013        -0.116822
 C        -1.064281        -0.228589         0.274311
 C        -2.587697        -0.408492         0.441438
 O        -3.168084         0.665729         1.180967
 C        -3.361555        -0.747777        -0.797316
 O        -4.340158        -1.812252        -0.582406
 C        -3.185063        -2.068585        -1.339716
 C        -3.553034        -2.359860        -2.872696
 H         1.611300        -0.536130        -1.449218
 H         1.928473         1.020244        -0.500903
 H         2.043161        -0.473126         0.365383
 H        -2.633450        -1.314135         1.173182
 H        -3.038589         1.508545         0.713641
 H        -3.726367         0.117150        -1.471513
 H        -2.445945        -2.797483        -0.881343
 H        -3.856467        -3.399767        -2.843179
 H        -4.333834        -1.620646        -2.750824
 H        -2.792944        -2.003208        -3.622037
