19
Iteration:    16
 C         1.513434         0.150509        -0.041514
 C         0.028731         0.056054        -0.165150
 C        -1.152282         0.123688         0.144549
 C        -2.645509        -0.131910         0.237483
 O        -3.206703         1.390241         0.003717
 C        -3.140873        -1.076861        -0.896616
 O        -4.507476        -1.610476        -0.919189
 C        -3.304469        -2.512643        -0.660148
 C        -3.377596        -3.549963        -1.792474
 H         1.698743        -0.176827         0.947254
 H         2.034111        -0.385471        -0.773387
 H         1.929429         1.159505         0.062303
 H        -2.947549        -0.352435         1.311358
 H        -2.484219         1.712592        -0.545374
 H        -2.682479        -0.782857        -1.894016
 H        -3.040399        -2.923430         0.413030
 H        -4.127507        -4.261502        -1.458174
 H        -3.736835        -2.999560        -2.691615
 H        -2.390453        -4.040493        -1.946475
