19
Iteration:  2275charge 0 multiplicity 1
 C         1.546751         0.277802        -0.232150
 C         0.120871        -0.045340        -0.257500
 C        -1.029838        -0.247956         0.115098
 C        -2.593385        -0.315770         0.352740
 O        -3.194647         1.044258         0.482763
 C        -3.320042        -0.941019        -0.846888
 O        -4.484350        -1.617869        -0.473086
 C        -3.353930        -2.408120        -1.000235
 C        -3.473346        -2.966371        -2.402312
 H         1.819041         1.176879        -0.867773
 H         1.834828         0.410699         0.850974
 H         2.026424        -0.640732        -0.648676
 H        -2.838716        -0.894067         1.202878
 H        -2.642723         1.461849         1.203894
 H        -3.244876        -0.175808        -1.580241
 H        -2.912230        -3.048838        -0.243926
 H        -4.066879        -3.889609        -2.459076
 H        -3.621525        -2.180526        -3.130316
 H        -2.368752        -3.168553        -2.511615
