19
Iteration:  3541
 C         1.566805         0.375928        -0.240102
 C         0.149037        -0.029482        -0.002745
 C        -1.056096        -0.249927         0.129656
 C        -2.467600        -0.462997         0.332420
 O        -3.045950         0.761536         0.864206
 C        -3.248982        -0.895389        -0.900924
 O        -4.528510        -1.540272        -0.585853
 C        -3.487272        -2.312867        -1.164530
 C        -3.675392        -2.838966        -2.650703
 H         2.350078        -0.525492        -0.243553
 H         1.798421         0.912175        -1.196341
 H         1.913102         0.968135         0.626584
 H        -2.538228        -1.241873         1.067647
 H        -2.297729         1.351911         1.125657
 H        -3.192451        -0.308492        -1.772174
 H        -3.109172        -2.987804        -0.414324
 H        -4.343924        -3.696232        -2.781793
 H        -4.198160        -1.985177        -2.997438
 H        -2.667497        -2.957168        -3.173694
