19
Iteration:  1117charge 0 multiplicity 1
 C         1.481492        -0.212060        -0.355778
 C         0.001465        -0.048699        -0.029063
 C        -1.223636         0.047016         0.132668
 C        -2.643539        -0.076648         0.276452
 O        -3.287779         1.270600         0.377193
 C        -3.277336        -0.919684        -0.881895
 O        -4.454172        -1.628727        -0.714293
 C        -3.255902        -2.354341        -0.839705
 C        -3.048998        -3.185195        -2.067482
 H         2.079998         0.557187         0.050539
 H         1.794766        -1.243806        -0.103829
 H         1.470599        -0.098622        -1.413233
 H        -2.809862        -0.401303         1.295064
 H        -4.198660         1.242414         0.191131
 H        -3.272398        -0.298211        -1.816754
 H        -2.807540        -2.736845         0.080488
 H        -3.548148        -4.124284        -1.907893
 H        -3.332756        -2.612862        -2.915135
 H        -2.018244        -3.427406        -2.174571
