19
Iteration:  4449
 C         1.576355        -0.037404        -0.447215
 C         0.102050        -0.084687        -0.037232
 C        -1.126919        -0.244724         0.204338
 C        -2.609451        -0.396778         0.473864
 O        -3.245369         0.811054         1.067491
 C        -3.414496        -0.815101        -0.791409
 O        -4.334938        -1.811657        -0.466790
 C        -3.289821        -2.214713        -1.362161
 C        -3.423967        -2.321895        -2.877261
 H         1.995493         0.860877        -0.851505
 H         2.169728        -0.446437         0.357427
 H         1.608745        -0.683014        -1.382982
 H        -2.667021        -1.232782         1.138483
 H        -2.628094         1.055205         1.777470
 H        -3.851699        -0.025298        -1.301563
 H        -2.662296        -2.868306        -0.967146
 H        -3.963950        -3.216741        -3.092390
 H        -4.084076        -1.550203        -3.072203
 H        -2.505809        -2.397294        -3.428560
