19
Iteration:  2314charge 0 multiplicity 1
 C         1.476198         0.127328        -0.357737
 C         0.030892        -0.019573        -0.104879
 C        -1.212346        -0.048581         0.089357
 C        -2.528831        -0.317733         0.419752
 O        -3.254260         1.005859         0.565289
 C        -3.177683        -1.003075        -0.763120
 O        -4.413254        -1.526074        -0.615489
 C        -3.282201        -2.431038        -0.966580
 C        -3.422239        -2.946170        -2.388580
 H         1.695319         0.516308        -1.378874
 H         2.087314         0.678304         0.306576
 H         1.923111        -0.841454        -0.423470
 H        -2.644900        -0.854380         1.459170
 H        -2.565592         1.618275         0.806877
 H        -3.224823        -0.427037        -1.720682
 H        -3.028630        -3.252297        -0.204821
 H        -3.851311        -3.919458        -2.619120
 H        -4.002716        -2.290070        -3.082251
 H        -2.427061        -3.118984        -2.753624
