19
Iteration:  1715
 C         1.501340        -0.001420        -0.370088
 C         0.019420        -0.028514        -0.126847
 C        -1.165693        -0.134082         0.267640
 C        -2.651712        -0.110699         0.426757
 O        -3.218736         1.216431         0.270559
 C        -3.233984        -1.003397        -0.684239
 O        -4.375718        -1.775582        -0.507663
 C        -3.196072        -2.426605        -0.995147
 C        -3.439563        -2.906898        -2.385656
 H         1.842026         0.999137        -0.767854
 H         1.945023        -0.237224         0.592148
 H         1.919489        -0.681069        -1.164557
 H        -3.073296        -0.634053         1.352724
 H        -2.729773         1.757995         0.886460
 H        -3.405243        -0.433561        -1.598827
 H        -2.558180        -3.074869        -0.266792
 H        -3.887650        -3.884044        -2.234870
 H        -4.110058        -2.282236        -2.930742
 H        -2.544916        -3.127274        -2.944452
