19
Iteration:  3430charge 0 multiplicity 1
 C         1.567618         0.290805        -0.397052
 C         0.112439        -0.036549        -0.033733
 C        -1.059940        -0.344618         0.198455
 C        -2.483153        -0.381634         0.486165
 O        -3.155283         0.747611         0.884689
 C        -3.235019        -0.858105        -0.823253
 O        -4.491075        -1.477372        -0.706071
 C        -3.456694        -2.216024        -1.205044
 C        -3.530832        -2.891341        -2.569727
 H         1.772987        -0.045110        -1.476072
 H         1.544833         1.387373        -0.346837
 H         2.284124        -0.122522         0.196340
 H        -2.592447        -1.240516         1.237003
 H        -2.605256         1.237431         1.503885
 H        -3.297313        -0.095148        -1.612431
 H        -2.982704        -2.851434        -0.448750
 H        -4.396821        -3.553292        -2.584803
 H        -3.810008        -2.194530        -3.453563
 H        -2.657497        -3.486458        -3.011124
