19
Iteration:   806
 C         1.516463         0.331405         0.135476
 C         0.082119         0.297873         0.002310
 C        -1.083763        -0.042082         0.053917
 C        -2.510666        -0.177711         0.159525
 O        -3.012385         1.144969         0.203741
 C        -3.136535        -1.014155        -1.036866
 O        -4.451171        -1.573521        -0.631237
 C        -3.551464        -2.610829        -0.871183
 C        -3.615271        -3.456954        -2.107420
 H         1.783917        -0.283191        -0.771334
 H         1.882026         1.364622         0.042359
 H         2.009731        -0.302395         0.914319
 H        -2.693304        -0.596354         1.189799
 H        -3.037333         1.682273        -0.610475
 H        -3.040451        -0.582769        -2.028410
 H        -3.041777        -3.144136        -0.016471
 H        -4.442109        -4.301747        -1.887750
 H        -3.927190        -2.868929        -3.030599
 H        -2.590766        -3.912664        -2.279066
