19
Iteration:  4347charge 0 multiplicity 1
 C         1.435148         0.094251        -0.540846
 C         0.077344        -0.148367        -0.055286
 C        -1.107866        -0.188790         0.201720
 C        -2.545287        -0.487334         0.483064
 O        -3.112893         0.614712         1.184958
 C        -3.382022        -0.785212        -0.690760
 O        -4.579927        -1.515891        -0.771873
 C        -3.268073        -2.119673        -1.320027
 C        -3.255686        -2.595773        -2.664742
 H         2.013849         0.797489         0.040703
 H         1.790970        -0.951577        -0.341096
 H         1.310954         0.360984        -1.624605
 H        -2.609282        -1.400712         1.064499
 H        -2.360657         1.177343         1.409869
 H        -3.403200         0.130262        -1.433300
 H        -3.107498        -2.858779        -0.527842
 H        -3.922774        -3.490005        -2.706108
 H        -3.801111        -1.972696        -3.469811
 H        -2.380233        -2.497051        -3.238558
