19
Iteration:  4644
 C         1.506493        -0.013738        -0.435438
 C         0.084193        -0.182039        -0.106481
 C        -1.091158        -0.266339         0.236083
 C        -2.606258        -0.397966         0.491911
 O        -3.186122         0.684533         1.171132
 C        -3.373624        -0.728789        -0.796253
 O        -4.349693        -1.843394        -0.601461
 C        -3.119860        -2.081157        -1.391984
 C        -3.568785        -2.320567        -2.785535
 H         1.907580        -0.371260        -1.317549
 H         1.804649         1.011438        -0.353680
 H         1.985219        -0.535979         0.470276
 H        -2.728020        -1.210080         1.144294
 H        -2.984831         1.494680         0.683496
 H        -3.754983         0.050128        -1.372159
 H        -2.545386        -2.856312        -0.918199
 H        -3.886387        -3.383849        -2.911576
 H        -4.504487        -1.643540        -2.892205
 H        -2.794112        -2.033120        -3.451497
