19
Iteration:  2872
 C         1.523175         0.275466        -0.310446
 C         0.073338        -0.096044        -0.283770
 C        -1.078079        -0.181822         0.147589
 C        -2.505537        -0.407964         0.480875
 O        -3.261768         0.761708         1.008658
 C        -3.116557        -0.912348        -0.954242
 O        -4.478770        -1.302968        -0.816051
 C        -3.398611        -2.320781        -1.028800
 C        -3.478084        -3.002292        -2.430132
 H         1.937132         0.256647        -1.354471
 H         1.739254         1.281652         0.049487
 H         2.136082        -0.482261         0.166578
 H        -2.533554        -1.088128         1.357277
 H        -3.311552         1.470056         0.332271
 H        -2.847466        -0.308978        -1.873006
 H        -3.136065        -3.056219        -0.227976
 H        -4.126351        -3.913182        -2.405380
 H        -3.897890        -2.297843        -3.119337
 H        -2.458603        -3.335750        -2.729932
