19
Iteration:  2464
 C         1.369889        -0.018968        -0.534809
 C         0.016192         0.018177        -0.059674
 C        -1.187654        -0.269553         0.188300
 C        -2.594103        -0.283455         0.370719
 O        -3.102657         1.097248         0.752577
 C        -3.337813        -0.874146        -0.780064
 O        -4.577344        -1.631249        -0.627480
 C        -3.391020        -2.377628        -0.992793
 C        -3.013215        -2.855343        -2.353479
 H         1.727592        -1.042024        -0.794950
 H         1.511443         0.697171        -1.456183
 H         2.214170         0.437168         0.199891
 H        -2.884419        -0.798959         1.264127
 H        -3.363890         1.532966        -0.068616
 H        -3.235223        -0.261016        -1.734533
 H        -3.032225        -3.202366        -0.284467
 H        -3.439119        -3.889213        -2.625840
 H        -3.184035        -2.134856        -3.251577
 H        -1.899022        -2.747813        -2.568013
