19
Iteration:  1855
 C         1.433510        -0.180953        -0.298007
 C         0.005568         0.028592        -0.268563
 C        -1.149633        -0.025197         0.007350
 C        -2.612313        -0.099535         0.344085
 O        -3.288651         1.164112         0.541062
 C        -3.318931        -0.884254        -0.685089
 O        -4.436940        -1.821050        -0.485128
 C        -3.160326        -2.339509        -0.981664
 C        -3.251329        -2.900802        -2.318575
 H         1.917260        -0.797102        -1.138490
 H         2.033857         0.704320        -0.155204
 H         1.672578        -0.797082         0.596166
 H        -2.793062        -0.615530         1.272953
 H        -3.000563         1.756043        -0.145038
 H        -3.332573        -0.326256        -1.592052
 H        -2.649777        -3.127912        -0.347013
 H        -3.412451        -4.014016        -2.394217
 H        -3.991784        -2.470635        -2.991363
 H        -2.308689        -2.858702        -2.867343
