19
Iteration:  3840charge 0 multiplicity 1
 C         1.317998        -0.141688        -0.598829
 C        -0.064018        -0.033811        -0.215982
 C        -1.155282        -0.111418         0.314384
 C        -2.552387        -0.444552         0.647469
 O        -3.227922         0.830237         1.087863
 C        -3.220880        -0.831426        -0.745421
 O        -4.451475        -1.618240        -0.705278
 C        -3.232570        -2.168946        -1.256188
 C        -3.192956        -2.604441        -2.629007
 H         1.698180         0.851595        -0.791437
 H         2.089404        -0.488285         0.071185
 H         1.454003        -0.737172        -1.529668
 H        -2.752303        -1.255124         1.300987
 H        -3.092886         1.399878         0.291574
 H        -3.043951        -0.019593        -1.526428
 H        -2.782507        -2.877343        -0.534515
 H        -4.042626        -3.303749        -2.706189
 H        -3.256296        -1.584677        -3.267934
 H        -2.313716        -3.230971        -2.880637
