19
Iteration:  4099
 C         1.630971         0.239170        -0.113872
 C         0.144988        -0.011109        -0.038791
 C        -1.057146        -0.131861         0.127160
 C        -2.426851        -0.491521         0.299504
 O        -3.040265         0.676587         0.899152
 C        -3.365484        -0.830507        -0.888809
 O        -4.468293        -1.670750        -0.523519
 C        -3.468751        -2.258080        -1.314826
 C        -3.727666        -2.622067        -2.702183
 H         2.114284        -0.724289        -0.520765
 H         1.993754         1.093618        -0.815207
 H         1.867286         0.332252         1.021282
 H        -2.511057        -1.408748         0.842303
 H        -2.364974         1.189388         1.366311
 H        -3.668851         0.027931        -1.631512
 H        -2.992678        -3.021170        -0.602457
 H        -4.008452        -3.676799        -2.874202
 H        -4.435877        -1.952996        -3.321347
 H        -2.724054        -2.576540        -3.160639
