19
Iteration:  4025charge 0 multiplicity 1
 C         1.495523         0.281435        -0.272710
 C         0.167689        -0.198635        -0.026738
 C        -1.016124        -0.331439         0.320927
 C        -2.524121        -0.477434         0.422278
 O        -3.089061         0.901147         0.749480
 C        -3.385513        -0.906384        -0.813435
 O        -4.415383        -1.722819        -0.474098
 C        -3.363895        -2.285082        -1.334603
 C        -3.616157        -2.505097        -2.761817
 H         1.893442         0.043556        -1.336604
 H         1.621399         1.332219        -0.211286
 H         1.981313        -0.224108         0.455216
 H        -2.793246        -1.246717         1.245496
 H        -2.450939         1.049874         1.483581
 H        -3.717003        -0.012021        -1.382941
 H        -2.632307        -2.951439        -0.847371
 H        -4.483401        -3.078785        -2.920554
 H        -3.705502        -1.551076        -3.304114
 H        -2.835487        -3.043512        -3.261097
