19
Iteration:  1991
 C         1.464408         0.137669        -0.587278
 C         0.048447         0.008090        -0.000133
 C        -1.165487        -0.221660         0.165293
 C        -2.561201        -0.312745         0.457456
 O        -3.126782         1.042997         0.535394
 C        -3.213338        -0.926908        -0.803708
 O        -4.548870        -1.434805        -0.870229
 C        -3.516144        -2.407069        -0.850405
 C        -3.160735        -3.052600        -2.167737
 H         2.096934        -0.799291        -0.403092
 H         1.412807         0.291707        -1.716941
 H         1.882256         1.024275        -0.036843
 H        -2.745584        -1.022387         1.219896
 H        -3.384553         1.384653         1.444841
 H        -2.863896        -0.543583        -1.815441
 H        -3.281648        -3.091171         0.118325
 H        -3.631329        -4.043044        -2.150331
 H        -3.500859        -2.301393        -2.969783
 H        -2.039144        -3.203682        -2.182079
