19
Iteration:   536charge 0 multiplicity 1
 C         1.408597        -0.199244        -0.216184
 C        -0.000984        -0.001732         0.034011
 C        -1.200721        -0.037252         0.126263
 C        -2.674502        -0.030784         0.129301
 O        -3.396396         1.283185         0.150862
 C        -3.333129        -0.855937        -0.971499
 O        -4.487660        -1.663002        -0.699918
 C        -3.164330        -2.322315        -0.803141
 C        -2.964622        -3.295250        -1.875419
 H         1.959310         0.301399         0.579109
 H         1.697053        -1.272133        -0.460532
 H         1.675917         0.218685        -1.158245
 H        -2.937678        -0.468797         1.117156
 H        -2.755943         2.034437         0.279459
 H        -3.151407        -0.419231        -1.995299
 H        -2.530940        -2.624909         0.075742
 H        -3.426996        -4.191013        -1.402524
 H        -3.486406        -2.964698        -2.765695
 H        -1.867538        -3.497754        -1.860757
