19
Iteration:  3781
 C         1.297302         0.029926        -0.672604
 C         0.026369        -0.198999        -0.037929
 C        -1.117262        -0.250242         0.342907
 C        -2.540974        -0.385703         0.582052
 O        -3.180791         0.808472         0.911475
 C        -3.324832        -0.828619        -0.625306
 O        -4.442738        -1.596984        -0.724857
 C        -3.262259        -2.202307        -1.245579
 C        -3.216912        -2.585750        -2.619205
 H         1.589783         1.068589        -0.222709
 H         1.944599        -0.793160        -0.339637
 H         1.237540         0.190839        -1.691320
 H        -2.703067        -1.062685         1.453559
 H        -2.544973         1.451127         0.562878
 H        -3.203294        -0.051449        -1.422857
 H        -2.988556        -2.996673        -0.498974
 H        -4.027357        -3.340708        -2.679239
 H        -3.583815        -1.780555        -3.210175
 H        -2.191943        -2.904915        -2.891423
