19
Iteration:   206
 C         1.540950         0.293493        -0.157908
 C         0.146899        -0.037219         0.242011
 C        -1.051355         0.089061         0.168680
 C        -2.510700        -0.074907         0.041303
 O        -3.270900         1.075729         0.049438
 C        -3.177933        -1.022360        -1.020740
 O        -4.619219        -1.404303        -0.844636
 C        -3.480090        -2.454249        -0.762893
 C        -3.284031        -3.580409        -1.739547
 H         1.336918         0.987264        -0.967245
 H         2.316298         0.570027         0.622321
 H         1.930531        -0.551196        -0.636637
 H        -2.848160        -0.694202         0.976020
 H        -2.754636         1.932248         0.036668
 H        -2.837797        -0.824424        -2.035604
 H        -3.392460        -2.828107         0.367270
 H        -4.179627        -4.229481        -1.754577
 H        -3.240406        -3.303451        -2.812836
 H        -2.410702        -4.230887        -1.621577
