19
Iteration:  1616charge 0 multiplicity 1
 C         1.422444         0.117206        -0.296314
 C        -0.017159         0.044921        -0.324173
 C        -1.120670        -0.080106         0.088218
 C        -2.540172        -0.178097         0.374803
 O        -3.107412         1.085938         0.698188
 C        -3.264360        -0.875073        -0.877389
 O        -4.524537        -1.536742        -0.773657
 C        -3.317677        -2.400992        -0.998870
 C        -3.354740        -3.302620        -2.156101
 H         1.637356         0.762885         0.628856
 H         1.790018        -0.875068        -0.119028
 H         2.089354         0.545944        -1.095869
 H        -2.692766        -0.818289         1.274054
 H        -2.242495         1.510618         0.753045
 H        -3.214258        -0.144359        -1.655855
 H        -3.076085        -2.943523        -0.062328
 H        -3.920562        -4.226676        -2.116134
 H        -3.704416        -2.738396        -2.985851
 H        -2.362872        -3.637718        -2.423414
