19
Iteration:  2702
 C         1.511753         0.295936        -0.290761
 C         0.117140         0.022924         0.129419
 C        -1.062305        -0.348194         0.170338
 C        -2.526605        -0.332444         0.354879
 O        -3.029437         1.037832         0.741162
 C        -3.351339        -0.919924        -0.854951
 O        -4.534994        -1.614006        -0.564196
 C        -3.370302        -2.378996        -1.211469
 C        -3.517503        -3.035043        -2.574089
 H         1.896584         1.353676         0.012671
 H         2.391107        -0.375508        -0.015647
 H         1.490604         0.243464        -1.426942
 H        -2.589394        -0.924969         1.244787
 H        -2.691286         1.704882         0.121296
 H        -3.416523        -0.175380        -1.706662
 H        -3.000560        -3.073756        -0.345745
 H        -4.181639        -3.861513        -2.579948
 H        -4.070260        -2.196197        -3.079198
 H        -2.515750        -3.019226        -2.999759
