19
Iteration:  2767charge 0 multiplicity 1
 C         1.507114         0.320761        -0.222972
 C         0.130370        -0.019067        -0.216649
 C        -1.000616        -0.262702         0.138535
 C        -2.496579        -0.393814         0.466387
 O        -3.217598         0.899914         0.755893
 C        -3.079015        -0.978312        -0.822970
 O        -4.514431        -1.499855        -0.635075
 C        -3.541020        -2.379455        -1.135172
 C        -3.526644        -2.931568        -2.473048
 H         1.548944         1.369399        -0.725881
 H         1.999892         0.117030         0.769594
 H         2.008847        -0.292754        -1.004336
 H        -2.748975        -0.882776         1.374523
 H        -2.698143         1.658479         0.420527
 H        -2.921525        -0.291744        -1.693000
 H        -3.147422        -3.080581        -0.365230
 H        -4.283391        -3.672523        -2.707212
 H        -3.548152        -2.175848        -3.304751
 H        -2.533913        -3.310628        -2.776136
