19
Iteration:  1072charge 0 multiplicity 1
 C         1.392703        -0.157425        -0.414177
 C        -0.033735        -0.170383        -0.090578
 C        -1.192529         0.063077         0.238374
 C        -2.657026        -0.090384         0.334275
 O        -3.434418         1.147478         0.259505
 C        -3.106310        -0.841849        -0.891511
 O        -4.421216        -1.533646        -0.713719
 C        -3.199311        -2.322333        -0.792674
 C        -3.065097        -3.206731        -2.037295
 H         1.875356         0.172968         0.445889
 H         1.524598        -1.259660        -0.533446
 H         1.571855         0.474211        -1.240125
 H        -3.154356        -0.753221         1.033758
 H        -3.007180         1.758693         0.820567
 H        -2.974067        -0.338318        -1.876790
 H        -2.984206        -2.932682         0.068460
 H        -3.704846        -4.047356        -2.040000
 H        -3.138902        -2.461397        -2.787171
 H        -2.098932        -3.592882        -2.071609
