19
Iteration:  1459
 C         1.471695         0.380600        -0.361991
 C         0.137543        -0.029549        -0.026014
 C        -1.098757        -0.137995         0.203555
 C        -2.496125        -0.290715         0.346854
 O        -3.137333         0.977126         0.481173
 C        -3.029022        -1.016392        -0.952703
 O        -4.476187        -1.318544        -0.733463
 C        -3.515158        -2.399739        -0.916200
 C        -3.521867        -3.305489        -2.121852
 H         2.203882        -0.456071        -0.432364
 H         1.510075         0.503950        -1.474952
 H         1.975887         1.209077         0.167853
 H        -2.623858        -0.925956         1.255047
 H        -4.066786         0.995263         0.165055
 H        -2.740617        -0.454684        -1.869023
 H        -3.615606        -2.994117         0.076463
 H        -4.331216        -3.985027        -2.196194
 H        -3.274035        -2.730930        -3.038252
 H        -2.702909        -3.978628        -1.956815
