19
Iteration:   989
 C         1.461675        -0.012438        -0.328994
 C         0.032611        -0.053884        -0.014417
 C        -1.148499        -0.100714         0.222062
 C        -2.645524        -0.088520         0.278248
 O        -3.251695         1.125675         0.237474
 C        -3.242052        -0.886914        -0.932361
 O        -4.529675        -1.522726        -0.807252
 C        -3.351189        -2.378228        -0.796894
 C        -3.059479        -3.234364        -1.961811
 H         2.236827        -0.408105         0.453525
 H         1.754696        -0.268404        -1.311169
 H         1.639554         1.105534        -0.383043
 H        -3.066308        -0.635946         1.086131
 H        -3.536137         1.517084         1.100715
 H        -2.995058        -0.547333        -1.941673
 H        -3.003282        -2.792562         0.173484
 H        -3.816869        -4.028253        -1.922460
 H        -3.395019        -2.817831        -2.919243
 H        -2.001708        -3.585127        -2.105347
