19
Iteration:   684charge 0 multiplicity 1
 C         1.470978         0.159472        -0.190377
 C         0.073732         0.208265         0.150395
 C        -1.117055        -0.104054         0.136426
 C        -2.618894        -0.167992         0.277118
 O        -3.149043         1.196600         0.170376
 C        -3.250067        -0.972210        -0.927185
 O        -4.489815        -1.536809        -0.911190
 C        -3.412991        -2.436393        -0.830198
 C        -3.300844        -3.501596        -1.923257
 H         1.753744         0.908441        -0.971893
 H         1.972589         0.293262         0.696590
 H         1.861513        -0.795610        -0.607787
 H        -2.889613        -0.580346         1.219320
 H        -2.373118         1.868687         0.247336
 H        -3.250217        -0.622511        -1.908693
 H        -3.189490        -2.634433         0.212306
 H        -4.022341        -4.390102        -1.934455
 H        -3.699564        -2.931394        -2.826706
 H        -2.193770        -3.770844        -1.886217
