19
Iteration:  1200
 C         1.553356         0.013458        -0.240046
 C         0.038601        -0.160635        -0.032978
 C        -1.175488        -0.079605         0.059686
 C        -2.632632        -0.099921         0.228663
 O        -3.163950         1.213416         0.249906
 C        -3.380442        -0.839696        -0.927532
 O        -4.483357        -1.701114        -0.522167
 C        -3.238859        -2.339495        -0.879351
 C        -3.187438        -3.134685        -2.130270
 H         1.630194         1.086732        -0.504895
 H         1.980937        -0.011521         0.787125
 H         1.914881        -0.730787        -1.019382
 H        -3.000370        -0.628416         1.149799
 H        -3.891656         1.098826         0.943333
 H        -3.449058        -0.418358        -1.929429
 H        -2.926412        -2.737697         0.094349
 H        -3.752044        -4.117012        -2.096310
 H        -3.917665        -2.672633        -2.895858
 H        -2.060711        -3.255407        -2.401007
