19
Iteration:  1919
 C         1.381359        -0.070375        -0.516146
 C         0.056548        -0.052689        -0.015161
 C        -1.193549        -0.128695         0.196676
 C        -2.686220        -0.201313         0.363797
 O        -3.273240         1.105557         0.479397
 C        -3.243695        -0.771747        -0.917705
 O        -4.363253        -1.659811        -0.581133
 C        -3.114695        -2.277339        -0.947949
 C        -3.298303        -3.066254        -2.253304
 H         1.629245        -0.942108        -1.136077
 H         1.497942         0.747666        -1.235296
 H         1.952002         0.030153         0.398027
 H        -2.905075        -0.889189         1.257192
 H        -3.108172         1.369986         1.400984
 H        -3.251278        -0.042148        -1.686294
 H        -2.641148        -2.705853        -0.168497
 H        -4.070703        -3.831721        -2.050872
 H        -3.480337        -2.328010        -3.016387
 H        -2.364552        -3.598508        -2.340400
