19
Iteration:  1749charge 0 multiplicity 1
 C         1.435269        -0.103774        -0.309223
 C        -0.092093         0.089326        -0.090448
 C        -1.230899        -0.085462         0.156722
 C        -2.676311        -0.188059         0.300613
 O        -3.090656         1.200424         0.401402
 C        -3.332658        -0.925127        -0.815233
 O        -4.322077        -1.800873        -0.318218
 C        -3.141592        -2.370455        -1.061491
 C        -3.376548        -2.947765        -2.422923
 H         1.749012         0.710192        -0.979874
 H         1.900401         0.160681         0.665572
 H         1.549659        -1.162816        -0.581770
 H        -3.092537        -0.689055         1.259280
 H        -2.277839         1.654102         0.224009
 H        -3.722013        -0.290005        -1.663300
 H        -2.293219        -2.871304        -0.533148
 H        -3.878621        -3.856692        -2.134392
 H        -4.051245        -2.388443        -3.080808
 H        -2.408735        -3.165174        -2.874971
