19
Iteration:   287
 C         1.458163         0.160792        -0.001375
 C         0.057475         0.041223        -0.179713
 C        -1.131261        -0.033660         0.074029
 C        -2.606439        -0.070665         0.128051
 O        -3.188201         1.246984        -0.026275
 C        -3.205594        -1.059966        -0.853017
 O        -4.503402        -1.492810        -0.698655
 C        -3.379804        -2.525873        -0.701796
 C        -3.250690        -3.465524        -1.944708
 H         2.185484        -0.014290        -0.863116
 H         1.550648         1.257313         0.172547
 H         1.683352        -0.526483         0.924224
 H        -2.897181        -0.511274         1.122618
 H        -3.113291         1.855411         0.763176
 H        -2.939045        -0.625054        -1.869875
 H        -3.151733        -2.967768         0.247360
 H        -3.854211        -4.340725        -1.704091
 H        -3.637955        -2.862369        -2.757318
 H        -2.174837        -3.759487        -2.004840
