19
Iteration:  2203
 C         1.585776         0.361583        -0.132537
 C         0.064754         0.025288        -0.140246
 C        -1.105774        -0.235561         0.076181
 C        -2.514440        -0.303402         0.272030
 O        -3.063495         1.059734         0.574737
 C        -3.332638        -0.926750        -0.941029
 O        -4.411528        -1.657449        -0.492781
 C        -3.387459        -2.351782        -1.129958
 C        -3.660597        -3.164661        -2.349853
 H         1.793479         1.343586         0.185157
 H         1.911164        -0.294063         0.690149
 H         2.105387         0.170072        -1.093912
 H        -2.838067        -0.912135         1.107696
 H        -2.238169         1.598320         0.722810
 H        -3.384992        -0.329571        -1.885822
 H        -2.585898        -2.840936        -0.388045
 H        -4.189837        -4.071949        -2.017635
 H        -4.201945        -2.498904        -3.017787
 H        -2.675512        -3.344054        -2.750032
