19
Iteration:  3450charge 0 multiplicity 1
 C         1.457333         0.404350        -0.300580
 C         0.156848        -0.223100        -0.106164
 C        -1.046855        -0.307713         0.127732
 C        -2.488932        -0.498719         0.375597
 O        -3.128736         0.812731         0.906345
 C        -3.257209        -0.825719        -0.848029
 O        -4.531675        -1.409916        -0.616352
 C        -3.419910        -2.285880        -1.193328
 C        -3.519014        -2.870077        -2.544784
 H         1.997772        -0.169704        -1.335403
 H         1.357921         1.505562        -0.502403
 H         2.158743         0.126195         0.481365
 H        -2.528642        -1.258913         1.139777
 H        -2.495010         1.181584         1.548792
 H        -3.043690        -0.095303        -1.695166
 H        -3.035140        -3.198155        -0.557472
 H        -4.338606        -3.586074        -2.770559
 H        -3.675939        -2.191941        -3.504322
 H        -2.531211        -3.363422        -2.836672
