19
Iteration:  2975charge 0 multiplicity 1
 C         1.300759         0.229577        -0.385281
 C         0.004811        -0.204096        -0.074807
 C        -1.151827        -0.248316         0.251977
 C        -2.541577        -0.351121         0.460147
 O        -3.090523         0.929595         0.784599
 C        -3.132633        -0.842956        -0.819172
 O        -4.441706        -1.578302        -0.699502
 C        -3.206064        -2.316987        -1.139925
 C        -3.528017        -2.857354        -2.482586
 H         1.856354        -0.627399        -0.804395
 H         1.292113         1.073184        -1.084983
 H         1.818459         0.724325         0.352289
 H        -2.758298        -1.207764         1.213234
 H        -2.325616         1.528327         0.841284
 H        -3.099520        -0.320869        -1.785585
 H        -2.645476        -2.897201        -0.427199
 H        -4.432006        -3.510924        -2.579130
 H        -3.646733        -1.858988        -3.089104
 H        -2.597551        -3.320969        -2.989817
