19
Iteration:  4583charge 0 multiplicity 1
 C         1.503260         0.023126        -0.282507
 C         0.065669        -0.103032        -0.105850
 C        -1.138262        -0.283363         0.125502
 C        -2.605323        -0.415424         0.474585
 O        -2.988411         0.898165         1.069325
 C        -3.506108        -0.853305        -0.743434
 O        -4.371489        -2.111199        -0.463249
 C        -3.280269        -2.115802        -1.375843
 C        -3.495850        -2.198763        -2.872489
 H         1.676870         0.092497        -1.453147
 H         2.058268         0.814415         0.314515
 H         1.911256        -0.937753        -0.036467
 H        -2.901015        -1.282313         1.182070
 H        -2.288470         1.439154         0.656832
 H        -3.970223         0.075106        -1.247052
 H        -2.653886        -2.945882        -1.005939
 H        -3.949627        -3.090524        -3.311119
 H        -4.115351        -1.353646        -3.084095
 H        -2.630485        -1.953732        -3.603541
