19
Iteration:  1240
 C         1.481071         0.075221        -0.211790
 C         0.036673         0.004082         0.019117
 C        -1.148814        -0.042092         0.021121
 C        -2.674538        -0.112481         0.306942
 O        -3.128727         1.182396         0.310938
 C        -3.237413        -0.937554        -0.858545
 O        -4.439165        -1.669931        -0.506401
 C        -3.313437        -2.446466        -0.907171
 C        -3.345688        -3.204030        -2.250736
 H         1.933888         0.774894        -0.985392
 H         1.952850         0.360184         0.782118
 H         1.859289        -0.905345        -0.533894
 H        -2.747485        -0.551006         1.338363
 H        -3.046293         1.603051        -0.602314
 H        -3.430431        -0.248006        -1.715472
 H        -2.765551        -2.974592        -0.040858
 H        -4.068005        -4.033127        -2.180339
 H        -3.889337        -2.576454        -2.958947
 H        -2.395530        -3.567452        -2.680356
