19
Iteration:  3354charge 0 multiplicity 1
 C         1.519018         0.045417        -0.450954
 C         0.120052        -0.035036        -0.170009
 C        -1.026502        -0.061385         0.227848
 C        -2.486358        -0.348208         0.515991
 O        -3.332137         0.690385         0.850029
 C        -3.244308        -0.857550        -0.722730
 O        -4.461217        -1.532374        -0.651169
 C        -3.308968        -2.279727        -1.152102
 C        -3.481128        -2.731602        -2.582178
 H         1.526545         0.503594        -1.424923
 H         2.068469         0.752635         0.197996
 H         1.994102        -0.995734        -0.520910
 H        -2.566970        -1.192380         1.338919
 H        -2.875601         1.494708         1.147209
 H        -3.254500        -0.162278        -1.622574
 H        -3.158996        -3.026258        -0.422014
 H        -4.011873        -3.634379        -2.814118
 H        -3.835700        -2.026330        -3.398541
 H        -2.405995        -2.914645        -2.918537
