19
Iteration:  3036charge 0 multiplicity 1
 C         1.500614         0.074276        -0.354799
 C         0.083189         0.033698        -0.035464
 C        -1.141321        -0.138406         0.049546
 C        -2.585041        -0.321227         0.390926
 O        -3.039693         0.929394         0.724147
 C        -3.387461        -0.905456        -0.743176
 O        -4.527599        -1.738244        -0.557727
 C        -3.397723        -2.276081        -1.142842
 C        -3.362456        -2.729600        -2.563011
 H         1.974586        -0.854606         0.072074
 H         1.592190        -0.002488        -1.434535
 H         2.049552         0.943264         0.246846
 H        -2.559973        -1.140607         1.171104
 H        -2.523537         1.074751         1.527697
 H        -3.414719        -0.131109        -1.566046
 H        -2.827075        -3.033066        -0.449337
 H        -3.526624        -3.793452        -2.634205
 H        -3.995311        -2.237373        -3.241643
 H        -2.325973        -2.615510        -2.843715
