19
Iteration:  1078
 C         1.363535        -0.166789        -0.379540
 C        -0.023454        -0.176030        -0.088056
 C        -1.175126         0.055670         0.208793
 C        -2.728549        -0.089386         0.339098
 O        -3.435162         1.154467         0.234678
 C        -3.117682        -0.858373        -0.919846
 O        -4.388421        -1.492762        -0.676678
 C        -3.201546        -2.370322        -0.849420
 C        -3.053331        -3.171729        -1.999165
 H         2.154908         0.215682         0.398498
 H         1.727524        -1.207451        -0.574508
 H         1.478989         0.384752        -1.387859
 H        -2.994778        -0.788186         1.205771
 H        -3.096488         1.560725         1.101719
 H        -3.095959        -0.309205        -1.853188
 H        -2.955789        -2.858057         0.132670
 H        -3.748339        -4.060015        -2.140069
 H        -3.208527        -2.485078        -2.893972
 H        -1.969084        -3.585851        -1.951700
