19
Iteration:  4085
 C         1.555999         0.207511        -0.114169
 C         0.182701         0.021080        -0.053854
 C        -0.996263        -0.262339         0.050374
 C        -2.458110        -0.494217         0.360822
 O        -3.088834         0.769739         0.890153
 C        -3.282937        -0.874226        -0.848064
 O        -4.538378        -1.715665        -0.573186
 C        -3.384361        -2.221135        -1.294412
 C        -3.731959        -2.605393        -2.714840
 H         2.047967        -0.585605        -0.555415
 H         1.742045         1.254773        -0.551747
 H         2.164886         0.336595         0.915680
 H        -2.497586        -1.196628         1.216105
 H        -2.392513         1.121934         1.478977
 H        -3.502116         0.017677        -1.478460
 H        -2.597542        -2.878500        -0.915912
 H        -4.394545        -3.562626        -2.631476
 H        -4.422681        -1.794506        -3.048620
 H        -2.842196        -2.733517        -3.404778
