19
Iteration:   413
 C         1.398284        -0.041004        -0.095290
 C        -0.032730        -0.045227         0.097412
 C        -1.274528        -0.031692         0.083386
 C        -2.700947         0.000953         0.101163
 O        -3.237500         1.321829        -0.025078
 C        -3.255227        -0.988521        -0.919774
 O        -4.413073        -1.698527        -0.407550
 C        -3.207811        -2.396700        -0.804549
 C        -3.100343        -3.291425        -2.093592
 H         1.754616        -1.011170         0.242211
 H         1.619665         0.030223        -1.205633
 H         1.967016         0.805457         0.349722
 H        -3.064848        -0.368051         1.079385
 H        -2.593517         1.889405        -0.483930
 H        -3.368148        -0.578106        -1.897696
 H        -2.668824        -2.773174         0.127295
 H        -3.719189        -4.136655        -1.836406
 H        -3.512756        -2.684487        -2.898392
 H        -2.041908        -3.498031        -2.265886
