19
Iteration:  3752charge 0 multiplicity 1
 C         1.333552         0.091049        -0.618154
 C        -0.004852        -0.032511        -0.015871
 C        -1.124967        -0.392019         0.327421
 C        -2.671801        -0.313542         0.504088
 O        -3.039991         0.888003         1.037496
 C        -3.280678        -0.826351        -0.808384
 O        -4.440953        -1.626542        -0.651180
 C        -3.389665        -2.243271        -1.219165
 C        -3.233122        -2.716028        -2.663275
 H         1.982322         0.726069         0.005770
 H         1.768868        -0.902364        -0.401978
 H         1.396450         0.414843        -1.712491
 H        -2.988220        -1.066198         1.236295
 H        -2.234204         1.446133         1.030299
 H        -3.206210        -0.124133        -1.714782
 H        -2.901562        -3.077222        -0.581920
 H        -3.633764        -3.732998        -3.009752
 H        -3.913586        -1.915539        -3.233958
 H        -2.228430        -2.650585        -3.133398
