19
Iteration:  4068charge 0 multiplicity 1
 C         1.597243         0.285673        -0.143844
 C         0.094162        -0.052522        -0.007750
 C        -1.098089        -0.390166         0.003016
 C        -2.485890        -0.402764         0.449138
 O        -3.065000         0.820301         0.860948
 C        -3.348091        -0.888944        -0.750609
 O        -4.386693        -1.693399        -0.583601
 C        -3.275067        -2.291975        -1.322650
 C        -3.785496        -2.575219        -2.762971
 H         2.154398        -0.449022        -0.880955
 H         1.993876         1.242571        -0.497383
 H         2.036768         0.145967         0.804375
 H        -2.616247        -1.180570         1.239023
 H        -2.711408         1.304121         1.630296
 H        -3.432699         0.007375        -1.448249
 H        -2.998967        -3.232300        -0.742736
 H        -4.471145        -3.358668        -2.663610
 H        -4.219245        -1.714570        -3.314475
 H        -2.995728        -2.902277        -3.408100
