19
Iteration:   499
 C         1.220784        -0.180824        -0.086649
 C        -0.151127        -0.133460        -0.278252
 C        -1.308923         0.003717         0.070949
 C        -2.699449         0.032697         0.228960
 O        -3.258445         1.408605         0.164917
 C        -3.132409        -0.967921        -0.864732
 O        -4.336157        -1.679242        -0.618010
 C        -3.143130        -2.373192        -0.792266
 C        -3.036129        -3.281624        -1.964400
 H         1.548133        -0.019621         0.953007
 H         1.766208        -1.086406        -0.334149
 H         1.510366         0.826343        -0.540390
 H        -3.182804        -0.272241         1.198884
 H        -2.682179         2.031485        -0.427611
 H        -2.990401        -0.660373        -1.865549
 H        -2.696489        -2.759837         0.199189
 H        -3.240616        -4.305569        -1.769147
 H        -3.565302        -3.152640        -2.901238
 H        -2.064748        -3.334380        -2.320365
