19
Iteration:   870charge 0 multiplicity 1
 C         1.539165         0.299897         0.027615
 C         0.119774        -0.020391         0.081731
 C        -1.085206         0.024681         0.026642
 C        -2.518009        -0.231253         0.100064
 O        -3.265504         1.054383         0.047361
 C        -3.171006        -1.078494        -1.011958
 O        -4.423571        -1.450819        -0.550518
 C        -3.420068        -2.424497        -0.838484
 C        -3.484583        -3.307867        -2.069423
 H         2.011248        -0.660218        -0.449199
 H         1.788625         1.060853        -0.705625
 H         1.990356         0.675721         1.014541
 H        -2.730135        -0.753557         1.119330
 H        -3.233413         1.133831         1.064713
 H        -3.101590        -0.614996        -1.977584
 H        -2.947450        -2.885777         0.035510
 H        -4.292825        -4.048458        -1.981154
 H        -3.809743        -2.766475        -2.964678
 H        -2.519367        -3.815846        -2.199250
