19
Iteration:  3012
 C         1.481483         0.178481        -0.378008
 C         0.086418        -0.125008        -0.105333
 C        -1.074024        -0.341440         0.203467
 C        -2.580956        -0.305925         0.413383
 O        -3.167109         0.970739         0.771377
 C        -3.345951        -0.848608        -0.829798
 O        -4.504106        -1.618535        -0.518610
 C        -3.308199        -2.268632        -1.141210
 C        -3.394928        -2.865400        -2.631230
 H         2.079326        -0.658805        -0.290657
 H         1.493702         0.466024        -1.433715
 H         1.889728         0.939864         0.419482
 H        -2.734228        -1.012535         1.321820
 H        -2.432384         1.385788         1.266120
 H        -3.436623        -0.008054        -1.491331
 H        -2.482950        -2.694630        -0.453000
 H        -3.845052        -3.884012        -2.772342
 H        -3.901416        -2.173719        -3.301078
 H        -2.372968        -2.968072        -2.954625
