19
Iteration:  2959charge 0 multiplicity 1
 C         1.423068         0.254848        -0.460195
 C         0.030917        -0.089245        -0.022736
 C        -1.139349        -0.280429         0.290583
 C        -2.616697        -0.383080         0.450066
 O        -3.105818         0.947386         0.834637
 C        -3.185004        -0.919996        -0.871925
 O        -4.391202        -1.531300        -0.689459
 C        -3.332193        -2.398068        -1.105966
 C        -3.456171        -2.828369        -2.568676
 H         1.974094        -0.547073        -1.052251
 H         1.378113         1.108342        -1.161275
 H         2.009339         0.406134         0.547962
 H        -2.909653        -0.952394         1.270904
 H        -2.317861         1.514847         0.708279
 H        -3.081954        -0.068419        -1.563876
 H        -3.165249        -3.135229        -0.250417
 H        -4.334578        -3.445407        -2.417897
 H        -3.691206        -2.192884        -3.341013
 H        -2.709376        -3.502091        -2.865406
