19
Iteration:  2991charge 0 multiplicity 1
 C         1.392075         0.226288        -0.410419
 C         0.033521        -0.244351        -0.109142
 C        -1.147171        -0.317466         0.243426
 C        -2.559905        -0.402408         0.430970
 O        -3.155395         0.969992         0.777492
 C        -3.218967        -0.823514        -0.863655
 O        -4.397961        -1.616219        -0.623090
 C        -3.248114        -2.239664        -1.140083
 C        -3.444728        -2.803002        -2.523674
 H         2.159167        -0.570286        -0.504856
 H         1.349127         0.912587        -1.298137
 H         1.754484         0.842237         0.605906
 H        -2.866855        -0.992751         1.306896
 H        -2.466033         1.613252         1.007131
 H        -3.323452         0.030971        -1.586534
 H        -2.812764        -3.059553        -0.397764
 H        -4.162547        -3.618615        -2.313652
 H        -3.933247        -2.120632        -3.167281
 H        -2.630764        -3.341574        -2.925403
