19
Iteration:  2878
 C         1.489052         0.243724        -0.353628
 C         0.074272        -0.061201        -0.248596
 C        -1.073394        -0.201759         0.146749
 C        -2.466355        -0.420273         0.381211
 O        -3.265730         0.781041         1.007421
 C        -3.109687        -0.902592        -0.878472
 O        -4.476132        -1.324129        -0.800317
 C        -3.407682        -2.350568        -1.060696
 C        -3.453475        -2.985347        -2.421252
 H         1.862982         0.184670        -1.357017
 H         1.627051         1.245859         0.122693
 H         2.202735        -0.332098         0.366323
 H        -2.589904        -1.064987         1.264049
 H        -3.383687         1.532124         0.400683
 H        -2.700582        -0.409612        -1.736246
 H        -3.458402        -2.934668        -0.126625
 H        -4.109414        -3.836008        -2.432191
 H        -3.846468        -2.143895        -3.069091
 H        -2.476583        -3.302312        -2.802780
