19
Iteration:  1700
 C         1.524837         0.049500        -0.388925
 C         0.100074        -0.143681        -0.061774
 C        -1.095689        -0.064443         0.244541
 C        -2.597253        -0.173621         0.414484
 O        -3.248713         1.142422         0.238562
 C        -3.275163        -0.880422        -0.781621
 O        -4.496651        -1.759976        -0.432241
 C        -3.228196        -2.396120        -0.968161
 C        -3.359316        -2.988915        -2.402934
 H         1.585352         1.114148        -0.508657
 H         2.129363        -0.279020         0.442238
 H         1.593136        -0.524230        -1.304884
 H        -2.773458        -0.491124         1.417766
 H        -3.084708         1.684019         1.061350
 H        -3.237341        -0.214062        -1.645287
 H        -2.894887        -3.129039        -0.184696
 H        -4.022643        -3.863641        -2.386078
 H        -3.948337        -2.194698        -2.895965
 H        -2.360515        -2.938286        -2.846582
