19
Iteration:   818charge 0 multiplicity 1
 C         1.522062         0.296658         0.094114
 C         0.101063         0.217103         0.002353
 C        -1.094897        -0.007578         0.029969
 C        -2.501596        -0.157539         0.135291
 O        -3.129864         1.094856         0.182286
 C        -3.131898        -1.071441        -0.862184
 O        -4.444619        -1.536863        -0.669063
 C        -3.396574        -2.504550        -0.907533
 C        -3.666145        -3.453774        -2.107517
 H         2.127155        -0.193578        -0.656647
 H         1.908740         1.357683        -0.004893
 H         1.828206         0.050523         1.127455
 H        -2.724672        -0.594666         1.121919
 H        -2.648674         1.508895        -0.613955
 H        -3.061318        -0.598949        -1.843745
 H        -3.074862        -2.971225         0.079044
 H        -4.442631        -4.318504        -1.880608
 H        -4.058820        -2.858501        -2.982033
 H        -2.752183        -4.010100        -2.463872
