19
Iteration:  4175charge 0 multiplicity 1
 C         1.536234         0.229852        -0.157489
 C         0.089940        -0.001854        -0.205050
 C        -1.052935        -0.205312         0.187355
 C        -2.483607        -0.442023         0.332260
 O        -3.067556         0.600292         1.082503
 C        -3.223869        -0.802514        -0.902343
 O        -4.415536        -1.498819        -0.634363
 C        -3.498974        -2.295740        -1.264720
 C        -3.664021        -2.678903        -2.741908
 H         1.929667        -0.615839         0.275697
 H         1.846095         0.461784        -1.216755
 H         1.814685         1.152338         0.469263
 H        -2.641120        -1.390598         0.946061
 H        -2.352853         0.970499         1.643971
 H        -3.198619         0.026754        -1.691648
 H        -2.981968        -3.003021        -0.586540
 H        -4.238709        -3.641373        -2.702645
 H        -4.274242        -2.012243        -3.446371
 H        -2.712544        -3.105073        -3.107342
