19
Iteration:  3850
 C         1.342689        -0.155663        -0.634734
 C        -0.010399         0.011434        -0.143253
 C        -1.170778        -0.096199         0.269857
 C        -2.564728        -0.457549         0.569177
 O        -3.218483         0.779822         1.095055
 C        -3.300505        -0.819202        -0.648964
 O        -4.439009        -1.575168        -0.761078
 C        -3.175599        -2.171646        -1.215655
 C        -3.210776        -2.598264        -2.635568
 H         1.796143         0.821720        -1.033924
 H         1.851829        -0.488691         0.273883
 H         1.517339        -0.874899        -1.424001
 H        -2.749194        -1.189607         1.341842
 H        -3.073893         1.540141         0.492148
 H        -3.428519         0.084449        -1.354742
 H        -2.709197        -2.974644        -0.563713
 H        -4.003821        -3.381320        -2.664293
 H        -3.446175        -2.095061        -3.641692
 H        -2.264066        -3.157156        -2.756472
