19
Iteration:  2643charge 0 multiplicity 1
 C         1.575648         0.150741        -0.215075
 C         0.015155        -0.013650        -0.190924
 C        -1.197354        -0.293970        -0.009641
 C        -2.598488        -0.280473         0.379071
 O        -3.213805         0.938728         0.697761
 C        -3.225379        -0.839791        -0.835502
 O        -4.393967        -1.644772        -0.525611
 C        -3.287250        -2.301676        -1.097606
 C        -3.462453        -2.861317        -2.431643
 H         1.910817         0.734206         0.776272
 H         2.038592        -0.818553        -0.316159
 H         1.916612         0.838066        -0.967163
 H        -2.721998        -1.012744         1.177149
 H        -2.502002         1.595162         0.797860
 H        -3.272810        -0.331596        -1.787037
 H        -2.961654        -3.085840        -0.514520
 H        -3.871340        -3.904891        -2.308749
 H        -4.169065        -2.238866        -2.962309
 H        -2.593186        -3.083823        -3.108270
