19
Iteration:   628charge 0 multiplicity 1
 C         1.430830         0.052676        -0.246961
 C        -0.046572        -0.112318        -0.063509
 C        -1.222521        -0.077642         0.194078
 C        -2.700524        -0.111836         0.323213
 O        -3.347200         1.143355         0.020890
 C        -3.049039        -0.929673        -0.840474
 O        -4.383282        -1.479326        -0.831275
 C        -3.278647        -2.325852        -0.738690
 C        -3.171177        -3.324710        -1.892924
 H         1.702494         1.120540        -0.254186
 H         1.985647        -0.364545         0.530157
 H         1.670287        -0.519581        -1.153352
 H        -2.967731        -0.570877         1.245935
 H        -3.065723         1.834200         0.599402
 H        -2.791342        -0.568988        -1.814981
 H        -3.096442        -2.760044         0.194437
 H        -4.017683        -4.014054        -1.703106
 H        -3.213867        -2.773384        -2.877566
 H        -2.181564        -3.928487        -1.920827
