19
Iteration:  1854charge 0 multiplicity 1
 C         1.432969        -0.185720        -0.293910
 C        -0.005470         0.028764        -0.274256
 C        -1.146397        -0.032251         0.008859
 C        -2.610689        -0.104218         0.335956
 O        -3.288277         1.167752         0.543767
 C        -3.317756        -0.887120        -0.680063
 O        -4.429958        -1.817323        -0.484534
 C        -3.157855        -2.336993        -0.981358
 C        -3.252961        -2.904933        -2.318166
 H         1.945905        -0.754633        -1.136833
 H         2.054688         0.731306        -0.165185
 H         1.631101        -0.807073         0.609684
 H        -2.803506        -0.617553         1.289889
 H        -3.019759         1.758510        -0.172144
 H        -3.361888        -0.353334        -1.603824
 H        -2.668273        -3.063401        -0.337099
 H        -3.392064        -4.024118        -2.436359
 H        -4.001870        -2.428966        -2.955290
 H        -2.310259        -2.856515        -2.877312
