19
Iteration:  2003charge 0 multiplicity 1
 C         1.451537         0.186346        -0.534463
 C         0.128708         0.031126        -0.024262
 C        -1.027685        -0.253901         0.160268
 C        -2.632754        -0.315341         0.405984
 O        -3.151335         0.961784         0.526032
 C        -3.268075        -0.910189        -0.778619
 O        -4.581390        -1.432174        -0.882282
 C        -3.502420        -2.345907        -0.881100
 C        -3.167919        -3.082932        -2.101309
 H         2.037381        -0.705159        -0.227528
 H         1.373269         0.115175        -1.707024
 H         2.125702         1.052161        -0.390005
 H        -2.818355        -0.764775         1.351871
 H        -3.141938         1.116795         1.469117
 H        -2.921372        -0.276345        -1.649388
 H        -3.641495        -2.974648         0.145591
 H        -3.667529        -4.006893        -2.356218
 H        -3.455440        -2.440707        -3.007840
 H        -2.057428        -3.178181        -2.173471
