19
Iteration:  4337charge 0 multiplicity 1
 C         1.351386         0.143758        -0.552601
 C         0.062150        -0.196880         0.049275
 C        -1.146082        -0.216541         0.137238
 C        -2.511946        -0.542093         0.541331
 O        -3.110638         0.659730         1.180617
 C        -3.304328        -0.737856        -0.727728
 O        -4.555429        -1.475768        -0.759266
 C        -3.324099        -2.140464        -1.243203
 C        -3.300934        -2.631718        -2.777287
 H         2.007089         0.720871         0.063963
 H         1.938997        -0.829365        -0.708019
 H         1.418564         0.425680        -1.663944
 H        -2.438977        -1.396693         1.157892
 H        -2.347559         1.206260         1.399018
 H        -3.302325         0.217031        -1.383870
 H        -2.952557        -2.960833        -0.681447
 H        -3.564135        -3.707087        -2.925910
 H        -3.883328        -1.844973        -3.361835
 H        -2.251141        -2.803964        -3.018957
