19
Iteration:  3847charge 0 multiplicity 1
 C         1.320493        -0.164773        -0.626673
 C        -0.024158         0.005152        -0.159044
 C        -1.158465        -0.088810         0.277378
 C        -2.552135        -0.472860         0.591202
 O        -3.220774         0.800317         1.088269
 C        -3.291042        -0.829700        -0.663336
 O        -4.437421        -1.579762        -0.752961
 C        -3.190000        -2.179108        -1.236855
 C        -3.205394        -2.579951        -2.626638
 H         1.818429         0.886447        -1.021663
 H         1.943030        -0.497819         0.260123
 H         1.567271        -0.798413        -1.448924
 H        -2.834423        -1.299949         1.328295
 H        -3.105833         1.538295         0.460140
 H        -3.358000         0.036177        -1.383990
 H        -2.690599        -2.949484        -0.559983
 H        -4.010107        -3.359165        -2.642100
 H        -3.394706        -2.064663        -3.532231
 H        -2.307094        -3.185287        -2.754271
