19
Iteration:  3672
 C         1.535920         0.136363        -0.289960
 C         0.128212        -0.095524        -0.175341
 C        -1.098238        -0.166487         0.084753
 C        -2.577930        -0.388495         0.312677
 O        -3.116474         0.755688         1.020542
 C        -3.326493        -0.850181        -0.831142
 O        -4.459802        -1.575133        -0.527379
 C        -3.434090        -2.302535        -1.169454
 C        -3.451052        -2.680345        -2.634081
 H         2.050096         0.142678         0.759903
 H         2.100982        -0.462057        -0.985986
 H         1.586792         1.057930        -0.712888
 H        -2.628781        -1.165351         1.031157
 H        -2.850009         1.533342         0.480215
 H        -3.605570        -0.175360        -1.611068
 H        -2.835359        -2.945124        -0.553811
 H        -3.868784        -3.713229        -2.773525
 H        -3.817015        -2.083247        -3.442851
 H        -2.339391        -2.805769        -2.910143
