19
Iteration:  3524
 C         1.494439         0.364974        -0.197394
 C         0.152624         0.047880        -0.085639
 C        -1.013763        -0.252488         0.124992
 C        -2.434682        -0.512457         0.373985
 O        -2.946667         0.787307         0.850782
 C        -3.276077        -0.964512        -0.843646
 O        -4.566695        -1.492202        -0.619420
 C        -3.566146        -2.337081        -1.216395
 C        -3.629815        -2.803403        -2.618876
 H         2.061475        -0.465692        -0.338163
 H         1.508930         0.984510        -1.089246
 H         2.015102         0.797445         0.729603
 H        -2.768248        -1.182043         1.249748
 H        -2.257989         1.325669         1.288011
 H        -3.326765        -0.019041        -1.492132
 H        -3.092489        -3.287111        -0.820860
 H        -4.018430        -3.857213        -2.544192
 H        -4.114434        -2.385711        -3.538304
 H        -2.620033        -3.035935        -2.862626
