19
Iteration:  2007charge 0 multiplicity 1
 C         1.479690         0.187621        -0.534660
 C         0.150360         0.048535        -0.039175
 C        -1.032202        -0.266243         0.173125
 C        -2.602376        -0.332348         0.402115
 O        -3.172056         0.961650         0.534204
 C        -3.241429        -0.928530        -0.793736
 O        -4.629831        -1.404652        -0.884577
 C        -3.495188        -2.315971        -0.828032
 C        -3.149438        -3.115407        -2.169494
 H         1.965843        -0.695905        -0.222730
 H         1.342322        -0.005279        -1.622520
 H         1.962527         1.181741        -0.323936
 H        -2.875589        -0.736569         1.454868
 H        -3.032279         1.131276         1.495146
 H        -3.153337        -0.369689        -1.721298
 H        -3.563380        -2.869053         0.067294
 H        -3.759260        -4.055694        -2.244807
 H        -3.400994        -2.496130        -2.979008
 H        -2.080788        -3.206129        -2.107960
