19
Iteration:   281
 C         1.451185         0.168925         0.018631
 C         0.001351         0.064553        -0.260857
 C        -1.145848        -0.027748         0.113743
 C        -2.616808        -0.035631         0.148394
 O        -3.149463         1.209027        -0.020198
 C        -3.138119        -0.999717        -0.859424
 O        -4.490673        -1.505274        -0.717905
 C        -3.362354        -2.546222        -0.692019
 C        -3.279139        -3.467025        -1.923831
 H         2.101437        -0.041455        -0.798366
 H         1.546750         1.203638         0.353217
 H         1.743187        -0.561963         0.805589
 H        -3.044424        -0.406008         1.086697
 H        -3.042240         1.668504         0.807439
 H        -2.969105        -0.816867        -1.911501
 H        -3.293915        -2.844543         0.413750
 H        -3.879896        -4.426054        -1.883671
 H        -3.679190        -2.945024        -2.825145
 H        -2.272000        -3.844999        -2.084246
