19
Iteration:  3519charge 0 multiplicity 1
 C         1.489563         0.401736        -0.193187
 C         0.105490         0.052381        -0.083655
 C        -1.020321        -0.296625         0.107165
 C        -2.403497        -0.560433         0.407889
 O        -2.942093         0.821264         0.846389
 C        -3.285581        -0.932542        -0.814628
 O        -4.580285        -1.492970        -0.626977
 C        -3.589607        -2.311455        -1.230779
 C        -3.601892        -2.863808        -2.657589
 H         2.091343        -0.626182        -0.491540
 H         1.773453         1.039385        -1.086414
 H         1.990865         0.726511         0.707064
 H        -2.601242        -1.195709         1.274400
 H        -2.274683         1.309291         1.341696
 H        -3.254648        -0.172132        -1.537212
 H        -3.098350        -3.038107        -0.590833
 H        -4.093408        -3.838085        -2.595014
 H        -4.147837        -2.241389        -3.357328
 H        -2.468878        -2.976130        -2.871697
