19
Iteration:   746
 C         1.510150         0.397530         0.049118
 C         0.111722        -0.147908        -0.057099
 C        -1.105908        -0.163355        -0.015512
 C        -2.522059        -0.180663         0.150402
 O        -3.192200         1.102863         0.173526
 C        -3.183142        -1.048048        -0.941164
 O        -4.541962        -1.432629        -0.683132
 C        -3.408021        -2.429966        -0.827789
 C        -3.409248        -3.373603        -1.986848
 H         1.796156         0.879960        -0.933076
 H         1.441444         1.337410         0.678694
 H         2.235333        -0.259564         0.580103
 H        -2.889301        -0.606110         1.163641
 H        -2.727909         1.766098        -0.474539
 H        -2.874622        -0.566497        -1.918348
 H        -3.083057        -2.846904         0.130139
 H        -4.093858        -4.112050        -1.775887
 H        -3.620611        -2.918723        -2.938447
 H        -2.472191        -3.927227        -2.107754
