19
Iteration:   360
 C         1.385188        -0.002063        -0.039323
 C        -0.072992         0.074034        -0.047785
 C        -1.235295        -0.042076         0.115824
 C        -2.628611        -0.009052         0.215157
 O        -3.175832         1.342455        -0.018044
 C        -3.240045        -0.966910        -0.941533
 O        -4.346081        -1.681392        -0.572694
 C        -3.213016        -2.449129        -0.849354
 C        -3.281288        -3.457273        -1.995198
 H         1.909492        -0.891505        -0.327365
 H         1.745792         0.796747        -0.743585
 H         1.607594         0.306105         0.939597
 H        -3.077210        -0.350092         1.154544
 H        -2.544467         2.066677         0.080481
 H        -3.293393        -0.450900        -1.898063
 H        -2.817167        -2.868083         0.111129
 H        -3.828711        -4.287652        -1.567650
 H        -3.824304        -2.975119        -2.819753
 H        -2.204160        -3.568893        -2.269841
