19
Iteration:  3811
 C         1.309477        -0.029676        -0.652496
 C        -0.037596        -0.221710        -0.167700
 C        -1.138242        -0.267859         0.337938
 C        -2.592331        -0.321834         0.527188
 O        -3.304755         0.912512         1.082838
 C        -3.181607        -0.911044        -0.752262
 O        -4.364580        -1.555938        -0.625397
 C        -3.247366        -2.324173        -1.215842
 C        -3.191595        -2.514464        -2.658704
 H         1.523500         1.031915        -0.419778
 H         2.102297        -0.580969        -0.101302
 H         1.440122        -0.263437        -1.808785
 H        -2.885913        -1.102090         1.318959
 H        -3.086804         1.610210         0.416615
 H        -2.964497        -0.308086        -1.581190
 H        -3.023059        -3.118801        -0.580112
 H        -4.053535        -3.118659        -2.850162
 H        -3.216802        -1.582941        -3.095813
 H        -2.285997        -3.075109        -2.888333
