19
Iteration:  4612charge 0 multiplicity 1
 C         1.399909         0.022546        -0.340936
 C         0.055308        -0.223302        -0.119276
 C        -1.142820        -0.270507         0.091269
 C        -2.507162        -0.366000         0.548624
 O        -3.108532         0.788491         1.089809
 C        -3.407100        -0.815158        -0.674602
 O        -4.313275        -1.926442        -0.445579
 C        -3.201530        -2.094763        -1.463302
 C        -3.518930        -2.281760        -2.918948
 H         1.803461        -0.123072        -1.252210
 H         1.658955         0.944475         0.112331
 H         1.850360        -0.820971         0.320439
 H        -2.631931        -1.169331         1.303200
 H        -2.621841         1.547542         0.693290
 H        -3.887892         0.052712        -1.055759
 H        -2.719691        -2.924278        -1.033076
 H        -3.941032        -3.221337        -3.281940
 H        -4.261875        -1.533658        -3.246429
 H        -2.731912        -2.104937        -3.595963
