19
Iteration:  3730charge 0 multiplicity 1
 C         1.321072         0.104124        -0.455010
 C        -0.020904        -0.074184        -0.107593
 C        -1.176401        -0.297928         0.181572
 C        -2.575835        -0.427235         0.476569
 O        -2.995624         0.903663         1.062318
 C        -3.279891        -0.874632        -0.823170
 O        -4.518010        -1.592044        -0.691023
 C        -3.277455        -2.219175        -1.164629
 C        -3.308759        -2.722612        -2.646861
 H         1.931045         0.661584         0.299666
 H         1.708109        -0.923389        -0.537863
 H         1.220417         0.782575        -1.400266
 H        -2.877800        -1.163464         1.231559
 H        -2.135352         1.327603         0.924914
 H        -3.222817        -0.008451        -1.578867
 H        -2.590832        -2.882561        -0.489782
 H        -3.565462        -3.841917        -2.829664
 H        -4.202437        -2.106144        -3.134308
 H        -2.340157        -2.582994        -3.217368
