19
Iteration:  4621
 C         1.476535         0.015421        -0.307416
 C         0.057608        -0.226001        -0.161712
 C        -1.146567        -0.320359         0.073842
 C        -2.568477        -0.428446         0.543430
 O        -3.183862         0.806303         1.129904
 C        -3.359632        -0.784997        -0.643387
 O        -4.321002        -1.895119        -0.498877
 C        -3.180730        -2.082908        -1.444836
 C        -3.537451        -2.287905        -2.923013
 H         1.690663        -0.147851        -1.354066
 H         1.808394         1.022951        -0.139025
 H         2.134711        -0.705668         0.272372
 H        -2.545984        -1.083721         1.325825
 H        -2.748680         1.582647         0.708698
 H        -3.691729         0.027930        -1.209500
 H        -2.421376        -2.795034        -0.999450
 H        -3.970886        -3.325805        -2.993366
 H        -4.458346        -1.583703        -3.058155
 H        -2.719777        -2.096766        -3.547656
