19
Iteration:  3141
 C         1.457990        -0.070713        -0.392629
 C         0.045449        -0.010454         0.070500
 C        -1.173917        -0.153935         0.121370
 C        -2.607039        -0.234432         0.347673
 O        -3.209474         0.990722         0.815722
 C        -3.368416        -0.827410        -0.817333
 O        -4.313666        -1.818798        -0.485576
 C        -3.062815        -2.229384        -1.253334
 C        -3.526661        -2.711975        -2.632019
 H         2.286353         0.093673         0.524702
 H         1.664559        -1.081213        -0.859468
 H         1.667608         0.520021        -1.281160
 H        -2.606099        -0.963189         1.114680
 H        -2.833129         1.345992         1.630015
 H        -3.766729        -0.173252        -1.549070
 H        -2.382223        -2.864423        -0.700356
 H        -4.226414        -3.606887        -2.356096
 H        -4.107245        -1.974287        -3.235726
 H        -2.607285        -3.073311        -3.167893
