19
Iteration:  1440charge 0 multiplicity 1
 C         1.493234         0.371952        -0.385920
 C         0.185491        -0.101274         0.057950
 C        -1.027863        -0.049483         0.135694
 C        -2.434381        -0.351283         0.272809
 O        -3.130730         0.975128         0.443946
 C        -3.173928        -0.966447        -0.880193
 O        -4.565206        -1.322126        -0.799879
 C        -3.540958        -2.377565        -0.914654
 C        -3.466254        -3.327846        -2.087410
 H         2.457703        -0.269906        -0.621641
 H         1.549085         0.963578        -1.281624
 H         1.731354         1.073380         0.517064
 H        -2.722957        -0.802223         1.233028
 H        -3.799954         0.595199         0.977472
 H        -2.870870        -0.482489        -1.788161
 H        -3.473670        -2.874519         0.116414
 H        -4.369385        -3.991296        -2.095851
 H        -3.251823        -2.850004        -3.064651
 H        -2.643517        -4.058499        -1.967346
