19
Iteration:  2926
 C         1.458365         0.221815        -0.478982
 C         0.111208         0.106968         0.014173
 C        -1.020600        -0.209844         0.293853
 C        -2.482085        -0.394839         0.496519
 O        -3.102990         0.790461         0.809763
 C        -3.251272        -0.925244        -0.776700
 O        -4.577081        -1.442846        -0.745689
 C        -3.524326        -2.392903        -1.130284
 C        -3.368679        -2.892111        -2.559754
 H         1.580478        -0.552021        -1.264855
 H         1.781975         1.234147        -0.707713
 H         2.243259         0.084004         0.337415
 H        -2.544866        -1.062218         1.304264
 H        -2.723206         1.483870         0.228767
 H        -3.275068        -0.193167        -1.600609
 H        -3.323431        -3.203778        -0.342771
 H        -4.140985        -3.656912        -2.586738
 H        -3.396726        -2.249574        -3.368066
 H        -2.504003        -3.496581        -2.596985
