19
Iteration:  1206charge 0 multiplicity 1
 C         1.567452         0.059426        -0.249500
 C         0.061915        -0.181654         0.007994
 C        -1.201931        -0.103703         0.051727
 C        -2.646228        -0.078273         0.225510
 O        -3.170317         1.247084         0.268235
 C        -3.340860        -0.884317        -0.929464
 O        -4.505033        -1.692694        -0.508158
 C        -3.288553        -2.356925        -0.877789
 C        -3.184288        -3.142535        -2.150985
 H         1.823430         1.049601        -0.679283
 H         2.115634        -0.073129         0.710006
 H         2.037892        -0.708789        -0.838950
 H        -2.917325        -0.704769         1.087952
 H        -3.996145         1.083011         0.667993
 H        -3.576754        -0.370210        -1.876757
 H        -2.693056        -2.770826        -0.018081
 H        -3.715628        -4.078951        -1.987743
 H        -3.754150        -2.560287        -2.849809
 H        -2.236386        -3.355158        -2.592827
