19
Iteration:  3055charge 0 multiplicity 1
 C         1.501097        -0.019474        -0.280836
 C         0.058043         0.100288        -0.092650
 C        -1.138232        -0.135611        -0.087036
 C        -2.457331        -0.354343         0.410633
 O        -3.128808         0.988526         0.795746
 C        -3.407618        -0.927359        -0.812298
 O        -4.584824        -1.718177        -0.525337
 C        -3.279109        -2.367867        -1.091721
 C        -3.304487        -2.697018        -2.574941
 H         1.976900        -0.732996         0.255756
 H         1.686081        -0.340451        -1.301140
 H         1.973697         0.925759         0.037076
 H        -2.558638        -1.256073         1.138928
 H        -2.621841         1.386460         1.524166
 H        -3.565186        -0.227319        -1.603620
 H        -2.911228        -3.052303        -0.300745
 H        -3.712774        -3.706752        -2.942712
 H        -4.157311        -2.040935        -2.859344
 H        -2.472400        -2.351310        -3.201343
