19
Iteration:  1907
 C         1.407189        -0.101886        -0.490276
 C         0.028731        -0.039794         0.043731
 C        -1.217598        -0.055263         0.144616
 C        -2.629505        -0.159431         0.290569
 O        -3.293486         1.125471         0.514925
 C        -3.209807        -0.836796        -0.910897
 O        -4.412921        -1.694013        -0.479780
 C        -3.201885        -2.282387        -0.985237
 C        -3.228931        -3.064157        -2.250188
 H         1.448433        -0.990996        -1.048849
 H         1.651122         0.835088        -1.053435
 H         2.328971        -0.201727         0.102321
 H        -2.980952        -0.871260         1.121384
 H        -2.846489         1.542689         1.254651
 H        -3.387258        -0.294807        -1.835220
 H        -2.566245        -2.680183        -0.312643
 H        -4.027784        -3.770438        -2.435960
 H        -3.495503        -2.401789        -3.086166
 H        -2.313658        -3.471489        -2.647485
