19
Iteration:  2311charge 0 multiplicity 1
 C         1.455711         0.145760        -0.357002
 C         0.023192        -0.031966        -0.123229
 C        -1.173112        -0.056556         0.081638
 C        -2.513059        -0.323490         0.435394
 O        -3.254982         0.993066         0.549476
 C        -3.172740        -0.990356        -0.760055
 O        -4.443408        -1.534735        -0.620678
 C        -3.251387        -2.437003        -0.957457
 C        -3.441845        -2.935379        -2.390271
 H         1.703924         0.553016        -1.294014
 H         2.066042         0.685277         0.427817
 H         1.893921        -0.904520        -0.395480
 H        -2.651137        -0.765657         1.463446
 H        -2.543980         1.623247         0.811259
 H        -3.210141        -0.411952        -1.692612
 H        -3.052263        -3.123956        -0.218930
 H        -3.877636        -3.932468        -2.637520
 H        -3.998752        -2.282081        -3.043289
 H        -2.391201        -3.108546        -2.707087
