19
Iteration:  3339
 C         1.521111         0.070498        -0.491637
 C         0.080732        -0.155559        -0.156373
 C        -1.079434        -0.068435         0.223237
 C        -2.476661        -0.384550         0.413215
 O        -3.367432         0.770868         0.909371
 C        -3.205216        -0.854117        -0.824239
 O        -4.504481        -1.588720        -0.606605
 C        -3.358888        -2.257386        -1.149642
 C        -3.359510        -2.683000        -2.550905
 H         1.892796         0.673703        -1.433566
 H         1.941527         0.463886         0.419355
 H         1.954039        -0.823834        -0.620073
 H        -2.489100        -1.169846         1.250490
 H        -2.701269         1.445688         1.179211
 H        -3.220148         0.025621        -1.485166
 H        -2.703302        -2.934970        -0.506519
 H        -4.047513        -3.608844        -2.433527
 H        -3.889860        -1.875499        -3.113305
 H        -2.372075        -3.012026        -2.934178
