19
Iteration:  2402
 C         1.394979         0.001731        -0.482956
 C        -0.068034        -0.185736        -0.274371
 C        -1.258317        -0.112231         0.177082
 C        -2.661258        -0.154409         0.393043
 O        -3.259562         1.034801         0.879610
 C        -3.156202        -0.806920        -0.897152
 O        -4.438170        -1.549694        -0.670975
 C        -3.155641        -2.361155        -0.944166
 C        -3.179871        -3.033958        -2.377255
 H         1.816942        -0.519600        -1.383090
 H         1.559117         1.025952        -0.590249
 H         1.834514        -0.274171         0.415636
 H        -2.928134        -1.070826         1.060070
 H        -2.661254         1.753294         0.676561
 H        -3.049629        -0.239912        -1.836610
 H        -2.855010        -2.893167        -0.036166
 H        -3.878896        -3.860927        -2.428206
 H        -3.577871        -2.323746        -3.116261
 H        -2.199150        -3.407305        -2.500649
