19
Iteration:  4647
 C         1.474516        -0.012298        -0.412295
 C         0.075502        -0.183583        -0.109792
 C        -1.064012        -0.246651         0.255372
 C        -2.604515        -0.399847         0.460984
 O        -3.176670         0.673231         1.175732
 C        -3.366832        -0.736084        -0.797253
 O        -4.345472        -1.829925        -0.592941
 C        -3.150039        -2.072346        -1.360184
 C        -3.568147        -2.342929        -2.834885
 H         1.753342        -0.442841        -1.394360
 H         1.895819         1.011878        -0.432382
 H         2.000906        -0.499246         0.444395
 H        -2.669712        -1.314391         1.211752
 H        -3.014140         1.516864         0.694544
 H        -3.762289         0.113149        -1.444908
 H        -2.523197        -2.831576        -0.917155
 H        -3.866289        -3.388466        -2.848457
 H        -4.353599        -1.651012        -2.767404
 H        -2.767200        -1.989196        -3.549670
