19
Iteration:   162
 C         1.413051         0.265073        -0.051215
 C        -0.013278         0.221226        -0.199180
 C        -1.088720        -0.167547         0.166878
 C        -2.616151        -0.147079         0.216106
 O        -3.180229         1.198396         0.110344
 C        -3.052578        -1.084163        -0.941165
 O        -4.401401        -1.415259        -0.984091
 C        -3.466644        -2.525455        -0.615551
 C        -3.358007        -3.530155        -1.771342
 H         1.916987         1.254190        -0.193237
 H         1.684371        -0.212710         0.982549
 H         1.834503        -0.304304        -0.856833
 H        -2.833062        -0.483492         1.282144
 H        -2.747692         1.657491        -0.675598
 H        -2.700722        -0.788239        -1.946377
 H        -3.511839        -2.606910         0.538953
 H        -4.280653        -4.182311        -1.655600
 H        -3.537426        -2.981272        -2.722699
 H        -2.439193        -4.135002        -1.733342
