19
Iteration:  2559charge 0 multiplicity 1
 C         1.430414        -0.037051        -0.390194
 C         0.021111         0.027232        -0.020683
 C        -1.144658        -0.036968         0.138739
 C        -2.561509        -0.286073         0.390122
 O        -3.232082         1.028604         0.671151
 C        -3.317220        -0.868568        -0.909994
 O        -4.416437        -1.705463        -0.563280
 C        -3.209069        -2.307841        -1.129636
 C        -3.359360        -2.927200        -2.393396
 H         1.997308        -0.686936         0.277196
 H         1.535752        -0.484558        -1.385776
 H         1.944588         0.911030        -0.511994
 H        -2.806312        -0.958918         1.290983
 H        -2.723504         1.309238         1.471670
 H        -3.185932        -0.171340        -1.807465
 H        -2.507787        -2.648422        -0.286230
 H        -4.114865        -3.705643        -2.292905
 H        -3.802523        -2.237777        -3.107644
 H        -2.390584        -3.142483        -2.868524
