19
Iteration:  1618charge 0 multiplicity 1
 C         1.437703         0.122553        -0.292720
 C         0.007698         0.043706        -0.331713
 C        -1.138863        -0.080382         0.099067
 C        -2.563058        -0.181961         0.378748
 O        -3.099618         1.080357         0.685784
 C        -3.260706        -0.873468        -0.880042
 O        -4.532262        -1.555574        -0.775707
 C        -3.321551        -2.384917        -0.976458
 C        -3.356261        -3.294529        -2.170718
 H         1.652631         0.777776         0.583933
 H         1.717847        -0.947758        -0.077740
 H         2.038421         0.563553        -1.133772
 H        -2.652804        -0.762451         1.279278
 H        -2.247764         1.487656         0.800532
 H        -3.172932        -0.107141        -1.639129
 H        -3.012735        -2.888159        -0.141014
 H        -3.897357        -4.262201        -2.079670
 H        -3.753845        -2.653415        -2.957541
 H        -2.337084        -3.691910        -2.398517
