19
Iteration:  4970
 C         1.532859         0.167605        -0.051489
 C         0.133096        -0.107997        -0.074177
 C        -1.109909        -0.061718        -0.093290
 C        -2.441085        -0.496048         0.353272
 O        -3.012299         0.363076         1.227735
 C        -3.235644        -0.774659        -0.918333
 O        -4.443301        -1.570956        -0.551896
 C        -3.342280        -2.211002        -1.374605
 C        -3.814298        -2.442328        -2.843453
 H         1.800691         0.618791         0.899662
 H         2.211197        -0.683255        -0.194352
 H         1.682463         1.031862        -0.760687
 H        -2.311478        -1.351481         0.862480
 H        -2.686681         1.276800         1.188098
 H        -3.572819         0.059844        -1.469892
 H        -2.703994        -2.898541        -0.911289
 H        -4.563384        -3.308195        -3.031018
 H        -4.350460        -1.519052        -3.164259
 H        -2.989538        -2.694565        -3.468251
