19
Iteration:  2635
 C         1.524037         0.115942        -0.200139
 C         0.003708        -0.019600        -0.233453
 C        -1.150804        -0.220281        -0.015063
 C        -2.515207        -0.301989         0.317477
 O        -3.264874         0.955720         0.695488
 C        -3.199740        -0.899891        -0.822052
 O        -4.424490        -1.653791        -0.525547
 C        -3.276044        -2.308279        -1.059564
 C        -3.468862        -2.838112        -2.429046
 H         1.874499         0.380274         0.923213
 H         2.174601        -0.776993        -0.342081
 H         1.699569         0.812105        -1.014556
 H        -2.755467        -1.071782         1.050483
 H        -2.566038         1.590874         0.949675
 H        -3.286160        -0.039715        -1.595974
 H        -2.753554        -2.964433        -0.204098
 H        -3.951064        -3.818738        -2.560686
 H        -4.118266        -2.226046        -3.050925
 H        -2.407374        -2.938787        -2.850080
