19
Iteration:   169
 C         1.463383         0.262724        -0.060656
 C         0.016628         0.201781        -0.113395
 C        -1.153581        -0.175193         0.112228
 C        -2.599668        -0.116011         0.181822
 O        -3.199571         1.148670         0.101095
 C        -3.022672        -1.104004        -0.901829
 O        -4.453409        -1.414243        -0.949874
 C        -3.477049        -2.425874        -0.661993
 C        -3.329938        -3.522576        -1.777994
 H         1.926996         1.217263        -0.246931
 H         1.930627         0.067423         0.860968
 H         1.772284        -0.368834        -0.915970
 H        -3.032354        -0.487796         1.148883
 H        -2.724338         1.719325        -0.505282
 H        -2.677595        -1.040693        -1.984100
 H        -3.480598        -2.882402         0.415847
 H        -4.230869        -4.101704        -1.481776
 H        -3.464234        -3.023197        -2.749710
 H        -2.448545        -4.168648        -1.604322
