19
Iteration:  3136
 C         1.472646        -0.084852        -0.392412
 C         0.060437        -0.027206         0.061447
 C        -1.168594        -0.161419         0.097668
 C        -2.601845        -0.244418         0.310985
 O        -3.256695         1.010534         0.829332
 C        -3.369936        -0.831019        -0.763071
 O        -4.274033        -1.801427        -0.505313
 C        -3.088611        -2.226808        -1.242671
 C        -3.528902        -2.714260        -2.615368
 H         2.035426         0.099444         0.396609
 H         1.726478        -1.045770        -0.823275
 H         1.783754         0.698126        -1.147721
 H        -2.786745        -1.157328         1.036836
 H        -2.695588         1.262969         1.602488
 H        -3.727072        -0.099884        -1.555528
 H        -2.335755        -2.804304        -0.658629
 H        -4.105407        -3.557697        -2.414665
 H        -4.103562        -2.013490        -3.196155
 H        -2.708039        -3.133359        -3.170252
