19
Iteration:  4819
 C         1.218898         0.323036        -0.550976
 C         0.010912        -0.134862         0.047495
 C        -1.121037        -0.530278         0.301046
 C        -2.496275        -0.690974         0.572140
 O        -2.902766         0.573284         1.302683
 C        -3.071870        -0.821566        -0.790738
 O        -4.512546        -1.299207        -0.861198
 C        -3.518206        -2.147133        -1.279956
 C        -3.383205        -2.528492        -2.856936
 H         1.951283        -0.317120        -0.178168
 H         1.210620         0.332614        -1.627370
 H         1.577331         1.369283        -0.280122
 H        -2.888374        -1.559266         1.284999
 H        -2.471936         1.308629         0.841939
 H        -2.981753        -0.059159        -1.486465
 H        -3.558476        -3.088317        -0.706692
 H        -3.867446        -3.511848        -2.917453
 H        -3.736095        -1.811564        -3.552027
 H        -2.363393        -2.582532        -3.000687
