19
Iteration:  1232
 C         1.496483         0.051268        -0.217481
 C         0.036658        -0.022910         0.047436
 C        -1.206317        -0.099645         0.010464
 C        -2.542961        -0.068456         0.284246
 O        -3.157747         1.247911         0.336647
 C        -3.311417        -0.924918        -0.870657
 O        -4.431692        -1.672365        -0.485686
 C        -3.318633        -2.430247        -0.938029
 C        -3.305578        -3.193025        -2.226426
 H         1.694574         0.900318        -0.895666
 H         2.015828         0.222591         0.648651
 H         2.046909        -0.842607        -0.576463
 H        -2.836289        -0.687110         1.119929
 H        -3.473109         1.297537        -0.553617
 H        -3.400494        -0.525805        -1.880947
 H        -2.906782        -3.032735        -0.108528
 H        -3.915523        -4.118493        -2.036137
 H        -3.770871        -2.510666        -3.012203
 H        -2.309168        -3.528905        -2.668854
