19
Iteration:  4179charge 0 multiplicity 1
 C         1.542171         0.245350        -0.169989
 C         0.077101         0.007636        -0.195714
 C        -1.077837        -0.250749         0.173730
 C        -2.466342        -0.440441         0.381251
 O        -3.080613         0.618218         1.086406
 C        -3.179172        -0.800472        -0.922050
 O        -4.423101        -1.492280        -0.625292
 C        -3.507141        -2.274739        -1.255914
 C        -3.666983        -2.711496        -2.771805
 H         2.091173        -0.668578         0.328263
 H         1.801475         0.427332        -1.175228
 H         1.804141         1.096367         0.332941
 H        -2.572610        -1.368021         0.873833
 H        -2.414295         0.986062         1.676921
 H        -3.373530        -0.056212        -1.652592
 H        -2.946134        -2.985663        -0.603551
 H        -4.301206        -3.568674        -2.732994
 H        -4.096249        -2.010807        -3.428549
 H        -2.701822        -3.058311        -3.138875
