19
Iteration:  3337
 C         1.524004         0.069067        -0.491296
 C         0.072506        -0.154996        -0.154602
 C        -1.080132        -0.073341         0.207513
 C        -2.487052        -0.377947         0.426308
 O        -3.361240         0.775208         0.914377
 C        -3.201916        -0.838787        -0.837157
 O        -4.509413        -1.596569        -0.593237
 C        -3.347728        -2.260338        -1.154813
 C        -3.353407        -2.687358        -2.548964
 H         1.829542         0.685624        -1.373235
 H         1.920362         0.501646         0.449297
 H         1.975238        -0.910715        -0.682923
 H        -2.561105        -1.159305         1.143101
 H        -2.678574         1.424570         1.184425
 H        -3.152933         0.008810        -1.479165
 H        -2.721759        -2.916461        -0.476613
 H        -4.046425        -3.580665        -2.511373
 H        -3.856141        -1.936749        -3.081980
 H        -2.412473        -2.982625        -2.941863
