19
Iteration:  1151
 C         1.420189        -0.159439        -0.240640
 C        -0.073017         0.015134        -0.190613
 C        -1.237473        -0.036377         0.097885
 C        -2.601991        -0.054382         0.264094
 O        -3.263071         1.279981         0.438336
 C        -3.268836        -0.905063        -0.829602
 O        -4.458013        -1.627212        -0.685126
 C        -3.236383        -2.445092        -0.855505
 C        -3.096380        -3.192827        -2.117998
 H         1.938827         0.761290        -0.014054
 H         1.775166        -0.886606         0.484471
 H         1.592073        -0.448772        -1.251015
 H        -2.782613        -0.643598         1.172733
 H        -2.790926         1.783312        -0.247368
 H        -3.339388        -0.400435        -1.822539
 H        -2.623947        -2.784636         0.003601
 H        -3.467351        -4.215338        -1.971922
 H        -3.726116        -2.891857        -2.920878
 H        -2.030650        -3.251234        -2.298850
