19
Iteration:  4242charge 0 multiplicity 1
 C         1.438181         0.323318        -0.463651
 C         0.115448        -0.139899         0.040471
 C        -1.037648        -0.359062         0.354368
 C        -2.496607        -0.497260         0.432954
 O        -3.084651         0.738036         1.019343
 C        -3.208217        -0.944151        -0.815282
 O        -4.524560        -1.477458        -0.678018
 C        -3.476493        -2.315230        -1.250350
 C        -3.466034        -2.523807        -2.782905
 H         2.263787         0.083219         0.180076
 H         1.678220        -0.208683        -1.425571
 H         1.502936         1.427572        -0.699065
 H        -2.692370        -1.369521         1.173024
 H        -2.479795         1.010991         1.725067
 H        -3.200195        -0.321440        -1.701753
 H        -3.320965        -3.236976        -0.605546
 H        -4.383855        -3.003664        -3.141548
 H        -3.398915        -1.620765        -3.437784
 H        -2.752967        -3.349661        -2.975232
