19
Iteration:   531
 C         1.387961        -0.204869        -0.189730
 C        -0.008064        -0.026508        -0.040128
 C        -1.237993        -0.017911         0.144824
 C        -2.672918        -0.021086         0.132975
 O        -3.363334         1.256638         0.155871
 C        -3.326128        -0.851786        -0.970106
 O        -4.476729        -1.650127        -0.686880
 C        -3.136614        -2.286013        -0.779858
 C        -2.954888        -3.336657        -1.883860
 H         1.918255         0.225865         0.684528
 H         1.716276        -1.211864        -0.379531
 H         1.614092         0.377813        -1.158732
 H        -3.112109        -0.332376         1.102887
 H        -2.771684         1.985560         0.203886
 H        -3.212866        -0.485726        -1.966211
 H        -2.620867        -2.596047         0.152945
 H        -3.472361        -4.188004        -1.461714
 H        -3.451968        -2.933767        -2.785912
 H        -1.903859        -3.480851        -2.160352
