19
Iteration:  3101charge 0 multiplicity 1
 C         1.483118        -0.044340        -0.277879
 C         0.030149        -0.189005        -0.259059
 C        -1.104886        -0.007878         0.111964
 C        -2.536860        -0.250354         0.312828
 O        -3.282830         0.873489         0.815148
 C        -3.383152        -0.843356        -0.726998
 O        -4.357862        -1.717010        -0.430981
 C        -3.192095        -2.199688        -1.229712
 C        -3.426103        -2.727704        -2.612608
 H         1.816108        -0.245619         0.654422
 H         2.019037        -0.765412        -0.829415
 H         1.732027         1.088919        -0.414131
 H        -2.677173        -0.997919         1.261596
 H        -2.533382         1.405968         1.156997
 H        -3.606509        -0.063245        -1.505018
 H        -2.537433        -2.925602        -0.621064
 H        -3.873695        -3.734756        -2.473779
 H        -4.138429        -2.236202        -3.258086
 H        -2.503329        -2.771590        -3.211618
