19
Iteration:  3587
 C         1.521114         0.242133        -0.210057
 C         0.160608        -0.033245        -0.075629
 C        -1.023767        -0.085806         0.162790
 C        -2.427088        -0.459177         0.407869
 O        -3.209647         0.721074         0.871056
 C        -3.188539        -0.892698        -0.927865
 O        -4.378062        -1.538222        -0.508353
 C        -3.355573        -2.302665        -1.260347
 C        -3.807467        -2.788139        -2.665939
 H         2.082580        -0.639962         0.228684
 H         1.822119         0.162818        -1.273305
 H         1.874325         1.293070         0.262868
 H        -2.460116        -1.338969         1.084392
 H        -2.676852         1.386957         0.399048
 H        -3.462778        -0.003145        -1.548612
 H        -2.742083        -2.965969        -0.566850
 H        -4.595905        -3.598963        -2.564056
 H        -4.177038        -1.927026        -3.221257
 H        -2.916694        -3.350445        -3.038320
