19
Iteration:  2019
 C         1.495210         0.162800        -0.538316
 C         0.065127         0.040215        -0.055760
 C        -1.079885        -0.255143         0.215939
 C        -2.497139        -0.307048         0.413154
 O        -3.196323         0.982675         0.579686
 C        -3.214465        -0.916395        -0.857550
 O        -4.687751        -1.361087        -0.829498
 C        -3.520003        -2.370303        -0.895499
 C        -3.153133        -3.145538        -2.167061
 H         2.281768        -0.385402         0.010261
 H         1.610817         0.094388        -1.612128
 H         1.852057         1.195573        -0.311048
 H        -2.693951        -1.186472         1.149975
 H        -2.864888         1.523003         1.346953
 H        -2.851307        -0.444877        -1.788113
 H        -3.272683        -2.833226        -0.008265
 H        -3.720740        -4.120680        -2.182854
 H        -3.332698        -2.628791        -3.079675
 H        -2.135426        -3.537175        -2.191470
