19
Iteration:   721
 C         1.432502         0.326473        -0.019389
 C         0.006963        -0.070235        -0.171208
 C        -1.162078        -0.163155         0.136455
 C        -2.545208        -0.210846         0.153241
 O        -3.185205         1.190726         0.197954
 C        -3.116161        -1.002941        -1.027134
 O        -4.401685        -1.457460        -0.742963
 C        -3.469717        -2.476622        -0.748681
 C        -3.387925        -3.393686        -1.948004
 H         1.863290         0.964684        -0.779330
 H         1.551177         0.973037         0.959925
 H         1.999031        -0.589032         0.195878
 H        -3.020642        -0.656899         1.065613
 H        -2.417214         1.814235         0.022679
 H        -2.805725        -0.453720        -1.963856
 H        -3.087545        -2.872726         0.303705
 H        -3.957577        -4.341613        -1.851407
 H        -3.563603        -2.829626        -2.866027
 H        -2.385816        -3.726245        -2.170375
