19
Iteration:  3902
 C         1.400316        -0.081855        -0.491992
 C        -0.019994        -0.205142        -0.144195
 C        -1.162281        -0.030169         0.171330
 C        -2.553951        -0.278835         0.442733
 O        -3.185735         0.684803         1.173132
 C        -3.310872        -0.736991        -0.884731
 O        -4.469186        -1.581330        -0.668405
 C        -3.256280        -2.198257        -1.156362
 C        -3.200805        -2.686476        -2.636206
 H         1.335343         0.796514        -1.373556
 H         2.034655         0.267008         0.384293
 H         1.685089        -1.039302        -0.878647
 H        -2.834285        -1.231207         1.082837
 H        -2.684584         1.520791         1.249353
 H        -3.415319        -0.045050        -1.793128
 H        -2.594334        -2.843839        -0.483465
 H        -3.520249        -3.738846        -2.829019
 H        -4.063781        -2.178349        -3.066781
 H        -2.328803        -2.443252        -3.231696
