19
Iteration:  3080charge 0 multiplicity 1
 C         1.541344        -0.049849        -0.224534
 C         0.029722        -0.038493        -0.270847
 C        -1.189162        -0.074413        -0.038521
 C        -2.494377        -0.268136         0.444160
 O        -3.222063         0.908441         0.811177
 C        -3.284975        -0.861585        -0.811201
 O        -4.458318        -1.757440        -0.473155
 C        -3.318015        -2.292185        -1.106014
 C        -3.400390        -2.692318        -2.606474
 H         2.002956        -0.496063         0.550910
 H         1.889019        -0.634415        -1.037104
 H         1.930361         1.034813        -0.160286
 H        -2.709463        -1.144471         1.151020
 H        -2.657247         1.542235         1.271409
 H        -3.634673        -0.068609        -1.535679
 H        -2.510325        -2.865864        -0.517978
 H        -3.629182        -3.713397        -2.810203
 H        -4.098544        -2.174405        -3.218052
 H        -2.422222        -2.463735        -3.012364
