19
Iteration:  2446charge 0 multiplicity 1
 C         1.426190         0.024291        -0.523959
 C         0.024399        -0.032844        -0.150680
 C        -1.203014        -0.281221         0.079986
 C        -2.676068        -0.292058         0.517962
 O        -3.152567         1.078817         0.754257
 C        -3.340781        -0.899611        -0.721928
 O        -4.578596        -1.569123        -0.670248
 C        -3.312461        -2.318966        -1.026887
 C        -2.983278        -2.911322        -2.368952
 H         1.604702        -0.994681        -0.994940
 H         1.690971         0.769492        -1.217493
 H         1.971172         0.163000         0.355753
 H        -2.703442        -0.912598         1.473589
 H        -3.156199         1.655614        -0.003675
 H        -3.291972        -0.331428        -1.632589
 H        -2.977452        -2.753805        -0.140382
 H        -3.571858        -3.807027        -2.540496
 H        -3.301564        -2.236178        -3.181156
 H        -1.903399        -3.049414        -2.397409
