19
Iteration:   166
 C         1.435637         0.264643        -0.048532
 C         0.000280         0.210056        -0.154225
 C        -1.117530        -0.176893         0.135141
 C        -2.613817        -0.128382         0.204353
 O        -3.191112         1.169745         0.104440
 C        -3.029826        -1.096208        -0.922415
 O        -4.429980        -1.412246        -0.966511
 C        -3.475188        -2.473632        -0.625586
 C        -3.338259        -3.531087        -1.788583
 H         1.963235         1.226377        -0.219883
 H         1.838640        -0.026990         0.937478
 H         1.786841        -0.358047        -0.972390
 H        -2.917262        -0.445753         1.163923
 H        -2.748610         1.696016        -0.566615
 H        -2.747567        -0.969070        -1.949569
 H        -3.488652        -2.708606         0.361881
 H        -4.214098        -4.068209        -1.529035
 H        -3.518976        -3.006557        -2.705386
 H        -2.461684        -4.150851        -1.633612
