19
Iteration:   770charge 0 multiplicity 1
 C         1.568983         0.390811         0.080528
 C         0.149328         0.110568         0.086124
 C        -1.037893        -0.152450        -0.044444
 C        -2.500376        -0.155669         0.145755
 O        -3.066892         1.091625         0.190003
 C        -3.292273        -1.018338        -0.966097
 O        -4.575959        -1.566473        -0.706596
 C        -3.440904        -2.453548        -0.825319
 C        -3.496230        -3.394493        -2.019060
 H         1.743180         0.446855        -1.065174
 H         1.843107         1.374978         0.367494
 H         2.150099        -0.321918         0.753783
 H        -2.890135        -0.720753         1.066544
 H        -3.083884         1.424662        -0.730936
 H        -3.190906        -0.570937        -1.965364
 H        -3.249744        -2.912255         0.106207
 H        -4.283478        -4.159333        -1.943553
 H        -3.714749        -2.796587        -2.943131
 H        -2.550781        -3.967179        -2.159719
