19
Iteration:  2131charge 0 multiplicity 1
 C         1.630698         0.261984        -0.261966
 C         0.207860         0.116352         0.085777
 C        -1.010090        -0.028638        -0.041529
 C        -2.452188        -0.272276         0.242046
 O        -3.205872         0.908110         0.569733
 C        -3.205342        -1.059332        -0.888196
 O        -4.573793        -1.493743        -0.538079
 C        -3.460120        -2.494200        -0.928248
 C        -3.572002        -3.048403        -2.373405
 H         2.143448         0.704258         0.706938
 H         1.930719        -0.762632        -0.259924
 H         1.764877         0.859684        -1.155690
 H        -2.579952        -0.830176         1.354725
 H        -3.523529         1.108376        -0.346402
 H        -3.358701        -0.400976        -1.799458
 H        -3.114838        -3.290119        -0.392386
 H        -4.088607        -4.015285        -2.283947
 H        -3.978703        -2.284639        -3.085201
 H        -2.492715        -3.303242        -2.531227
