19
Iteration:  4610
 C         1.396620         0.015704        -0.343216
 C         0.047472        -0.216779        -0.113346
 C        -1.161872        -0.255358         0.107564
 C        -2.490975        -0.361984         0.548033
 O        -3.083547         0.786558         1.079715
 C        -3.424935        -0.845357        -0.687708
 O        -4.307615        -1.925966        -0.440300
 C        -3.219741        -2.092410        -1.451804
 C        -3.519968        -2.274097        -2.921436
 H         1.843870        -0.099412        -1.303062
 H         1.634284         0.923577         0.186962
 H         1.845770        -0.793973         0.329877
 H        -2.653179        -1.131035         1.208197
 H        -2.605341         1.547851         0.705096
 H        -3.916835         0.005299        -1.036573
 H        -2.648112        -2.968024        -1.035930
 H        -3.902559        -3.256746        -3.297469
 H        -4.246656        -1.440810        -3.329342
 H        -2.712490        -2.100524        -3.569267
