19
Iteration:  4526
 C         1.424000         0.020254        -0.300897
 C         0.013918        -0.236422        -0.136111
 C        -1.104406        -0.317392         0.278423
 C        -2.581904        -0.399266         0.430000
 O        -3.077327         0.874711         0.985167
 C        -3.436723        -0.820225        -0.714652
 O        -4.259121        -1.958079        -0.415537
 C        -3.217456        -2.105966        -1.440586
 C        -3.580579        -2.267452        -2.904330
 H         1.389356         0.759960        -1.081271
 H         1.913956         0.504397         0.518540
 H         2.058767        -0.843061        -0.657847
 H        -2.834982        -1.248949         1.173499
 H        -2.282783         1.392354         1.238165
 H        -3.855884        -0.096520        -1.360048
 H        -2.506037        -2.758914        -1.117387
 H        -3.740778        -3.265437        -3.217107
 H        -4.390277        -1.659483        -3.124408
 H        -2.673292        -1.841480        -3.284841
