19
Iteration:   534charge 0 multiplicity 1
 C         1.398619        -0.201006        -0.202666
 C         0.001641        -0.009575         0.003991
 C        -1.217471        -0.030658         0.135634
 C        -2.669356        -0.029228         0.127248
 O        -3.385651         1.269933         0.153489
 C        -3.334720        -0.851849        -0.971685
 O        -4.484947        -1.657424        -0.695825
 C        -3.155279        -2.308991        -0.795514
 C        -2.957614        -3.313921        -1.882640
 H         1.923435         0.277068         0.622113
 H         1.716671        -1.265927        -0.454101
 H         1.641471         0.270894        -1.167551
 H        -3.014674        -0.391350         1.117872
 H        -2.742697         2.053228         0.254625
 H        -3.162509        -0.455844        -1.969291
 H        -2.523385        -2.628972         0.120328
 H        -3.440495        -4.161502        -1.407940
 H        -3.463800        -2.947114        -2.741263
 H        -1.918781        -3.480377        -1.966237
