19
Iteration:   532
 C         1.390766        -0.204205        -0.192903
 C        -0.001932        -0.020092        -0.025515
 C        -1.232646        -0.022531         0.142394
 C        -2.669930        -0.024583         0.129906
 O        -3.371243         1.260503         0.155395
 C        -3.330402        -0.850907        -0.971333
 O        -4.480059        -1.652452        -0.690283
 C        -3.143545        -2.293726        -0.785453
 C        -2.954684        -3.330280        -1.884350
 H         1.915503         0.244886         0.665575
 H         1.719024        -1.231037        -0.410262
 H         1.620028         0.342598        -1.171406
 H        -3.083587        -0.342313         1.109608
 H        -2.761927         2.013185         0.222129
 H        -3.192859        -0.481815        -1.956931
 H        -2.575399        -2.611865         0.146063
 H        -3.459933        -4.167635        -1.438773
 H        -3.452901        -2.935675        -2.763991
 H        -1.921391        -3.476385        -2.092323
