19
Iteration:  3628charge 0 multiplicity 1
 C         1.628726         0.132842        -0.224239
 C         0.144705         0.166078        -0.056261
 C        -1.074656        -0.132661         0.024188
 C        -2.422207        -0.405443         0.415633
 O        -3.172300         0.812264         1.014248
 C        -3.270386        -0.894459        -0.832509
 O        -4.466243        -1.662333        -0.614212
 C        -3.357089        -2.362310        -1.280747
 C        -3.710670        -2.761264        -2.613051
 H         2.128491        -0.551196         0.558181
 H         1.832920        -0.353773        -1.177951
 H         2.018328         1.044230        -0.359479
 H        -2.450710        -1.065239         1.232749
 H        -3.158422         1.556222         0.368459
 H        -3.226193        -0.221467        -1.670915
 H        -2.988804        -3.107018        -0.639820
 H        -4.530060        -3.465205        -2.770182
 H        -3.930387        -1.879645        -3.149340
 H        -2.845354        -3.159301        -3.247827
