19
Iteration:  2507charge 0 multiplicity 1
 C         1.353806         0.010189        -0.507659
 C         0.013787        -0.186628        -0.108525
 C        -1.191242        -0.241424         0.220023
 C        -2.614088        -0.145885         0.487450
 O        -3.281838         1.070944         0.711620
 C        -3.200390        -0.867156        -0.739434
 O        -4.402447        -1.631968        -0.658631
 C        -3.205950        -2.292878        -1.032879
 C        -3.251563        -2.938177        -2.476535
 H         2.021846        -0.774839        -0.251131
 H         1.452508         0.306462        -1.604810
 H         1.868256         0.850023         0.109852
 H        -2.927992        -0.698874         1.364543
 H        -2.727580         1.612315         0.125140
 H        -3.184271        -0.046328        -1.510412
 H        -2.819606        -2.945722        -0.174543
 H        -3.590139        -3.974062        -2.239604
 H        -3.885831        -2.270969        -3.124905
 H        -2.225406        -3.025564        -2.920212
