19
Iteration:  4728charge 0 multiplicity 1
 C         1.452676         0.024690        -0.487611
 C        -0.017945        -0.075179        -0.243117
 C        -1.157526        -0.215063         0.227749
 C        -2.525541        -0.521743         0.546963
 O        -3.212783         0.502891         1.291390
 C        -3.154849        -0.762990        -0.819872
 O        -4.470849        -1.506823        -0.722808
 C        -3.358332        -2.173679        -1.232025
 C        -3.379324        -2.394968        -2.776692
 H         1.839127        -1.006499        -0.832739
 H         1.507965         0.873759        -1.217980
 H         2.148940         0.363541         0.253201
 H        -2.478336        -1.581561         1.154583
 H        -2.570173         1.239090         1.343406
 H        -3.140283         0.149678        -1.432717
 H        -2.990925        -3.051142        -0.642624
 H        -4.121947        -3.136197        -3.146720
 H        -3.342135        -1.477991        -3.469358
 H        -2.342178        -2.780574        -2.947428
