19
Iteration:  1918
 C         1.389266        -0.078076        -0.515844
 C         0.055154        -0.049943        -0.005902
 C        -1.190073        -0.121830         0.189022
 C        -2.690964        -0.203643         0.355730
 O        -3.275653         1.110400         0.482267
 C        -3.235412        -0.769654        -0.918647
 O        -4.371214        -1.666149        -0.569108
 C        -3.121423        -2.278374        -0.952532
 C        -3.295690        -3.074935        -2.255219
 H         1.585929        -0.910275        -1.131809
 H         1.493300         0.757636        -1.245790
 H         1.952299         0.013965         0.396349
 H        -2.915139        -0.906037         1.233900
 H        -3.082914         1.373181         1.378454
 H        -3.231148        -0.017872        -1.692940
 H        -2.602572        -2.706808        -0.190898
 H        -4.076066        -3.816868        -2.090500
 H        -3.469915        -2.294921        -2.966747
 H        -2.343348        -3.562202        -2.341991
