19
Iteration:  1448
 C         1.470191         0.378885        -0.390648
 C         0.189640        -0.101413         0.027806
 C        -1.020357        -0.062335         0.156363
 C        -2.477046        -0.289150         0.320273
 O        -3.119668         0.951331         0.437263
 C        -3.070701        -0.993771        -0.869068
 O        -4.563055        -1.302001        -0.771744
 C        -3.585108        -2.364348        -0.914978
 C        -3.448726        -3.357816        -2.117257
 H         2.139607        -0.491268        -0.273697
 H         1.305102         0.954201        -1.329242
 H         1.802868         1.158337         0.328635
 H        -2.639221        -0.983321         1.172841
 H        -3.992099         0.750844         0.714002
 H        -2.920519        -0.550322        -1.873157
 H        -3.138000        -2.897613         0.026046
 H        -4.397958        -3.816163        -2.186384
 H        -3.389839        -2.878352        -3.119978
 H        -2.642443        -4.027811        -1.944257
