19
Iteration:  2851charge 0 multiplicity 1
 C         1.500317         0.231984        -0.325199
 C         0.083545        -0.024507        -0.196571
 C        -1.066394        -0.100038         0.185156
 C        -2.479346        -0.434353         0.378959
 O        -3.193281         0.704009         0.981784
 C        -3.145418        -0.783196        -0.874121
 O        -4.464995        -1.376703        -0.825745
 C        -3.423404        -2.216675        -1.163423
 C        -3.533009        -3.119095        -2.377716
 H         1.899022         0.546291        -1.347543
 H         1.690709         1.057404         0.377414
 H         2.134618        -0.567141        -0.009421
 H        -2.656595        -1.257002         1.195814
 H        -3.111410         1.519275         0.459390
 H        -2.941977        -0.041590        -1.703032
 H        -3.216415        -2.915468        -0.312651
 H        -4.162660        -4.034619        -2.102257
 H        -3.979506        -2.566148        -3.221573
 H        -2.467331        -3.510799        -2.631790
