19
Iteration:  3052
 C         1.491535         0.003839        -0.278201
 C         0.064974         0.098346        -0.080338
 C        -1.152510        -0.129034        -0.074818
 C        -2.457417        -0.366897         0.408884
 O        -3.106387         0.977224         0.788082
 C        -3.396992        -0.912190        -0.808357
 O        -4.602056        -1.716216        -0.532812
 C        -3.284344        -2.382281        -1.078890
 C        -3.310061        -2.713067        -2.580921
 H         2.062355        -0.904239         0.268740
 H         1.711129        -0.258570        -1.373025
 H         1.980448         0.890335        -0.055549
 H        -2.612979        -1.142589         1.178269
 H        -2.651978         1.391425         1.539400
 H        -3.612023        -0.212236        -1.599920
 H        -2.816230        -2.963777        -0.343161
 H        -3.700187        -3.710531        -2.945347
 H        -4.164270        -2.010883        -2.931614
 H        -2.436635        -2.327759        -3.181910
