19
Iteration:   328
 C         1.534128         0.116057        -0.064869
 C         0.085621         0.023633         0.220275
 C        -1.087349        -0.040273        -0.022676
 C        -2.531242        -0.154075         0.034549
 O        -3.296907         1.205371        -0.036183
 C        -3.416347        -0.976006        -1.010595
 O        -4.585232        -1.602102        -0.572113
 C        -3.263069        -2.419147        -0.764506
 C        -3.186736        -3.306773        -1.890719
 H         1.891813        -0.646141        -0.744557
 H         1.681799         1.095943        -0.598477
 H         2.077687        -0.116017         0.759178
 H        -2.743998        -0.471526         1.069959
 H        -2.644668         1.815243         0.343348
 H        -3.460297        -0.702637        -2.057654
 H        -2.946167        -2.653640         0.227511
 H        -3.694213        -4.248547        -1.765168
 H        -3.624575        -2.806180        -2.764976
 H        -2.163370        -3.714391        -2.051381
