19
Iteration:  4739charge 0 multiplicity 1
 C         1.355032         0.063857        -0.501546
 C        -0.017232        -0.105246        -0.209768
 C        -1.133683        -0.290526         0.174622
 C        -2.514548        -0.504040         0.546769
 O        -3.192985         0.495046         1.304930
 C        -3.176180        -0.822404        -0.769955
 O        -4.443586        -1.398690        -0.657842
 C        -3.357942        -2.125065        -1.367191
 C        -3.314859        -2.455581        -2.774032
 H         1.935537        -0.844507        -0.864394
 H         1.533626         0.738118        -1.380524
 H         1.734146         0.456587         0.424344
 H        -2.687071        -1.476762         1.247302
 H        -2.617472         1.248051         1.476514
 H        -3.105027        -0.048840        -1.541614
 H        -3.009935        -2.942227        -0.719277
 H        -4.100367        -3.167843        -3.118200
 H        -3.330424        -1.505093        -3.413247
 H        -2.368682        -3.026477        -2.907270
