19
Iteration:  1727charge 0 multiplicity 1
 C         1.380592        -0.015921        -0.328600
 C        -0.048993         0.033146        -0.151808
 C        -1.226287        -0.157971         0.239664
 C        -2.600153        -0.124801         0.384033
 O        -3.154431         1.209831         0.314248
 C        -3.229252        -0.897260        -0.751657
 O        -4.318468        -1.825966        -0.448455
 C        -3.158573        -2.435130        -0.988279
 C        -3.462191        -2.954850        -2.410310
 H         1.853329         0.906648        -0.756605
 H         1.873635        -0.166419         0.695377
 H         1.428867        -1.004401        -0.851956
 H        -2.784243        -0.458325         1.472583
 H        -2.463066         1.847616         0.676045
 H        -3.173423        -0.232274        -1.650900
 H        -2.510397        -3.133346        -0.351890
 H        -4.009689        -3.900716        -2.390265
 H        -4.102762        -2.228190        -2.926912
 H        -2.516150        -3.024266        -2.964736
