19
Iteration:  3933
 C         1.527184         0.017720        -0.429639
 C         0.028851        -0.114384        -0.215586
 C        -1.149944        -0.261612         0.075482
 C        -2.621709        -0.382602         0.584786
 O        -3.226486         0.727878         1.038495
 C        -3.297874        -0.747089        -0.730336
 O        -4.459500        -1.581882        -0.644467
 C        -3.293032        -2.146593        -1.204998
 C        -3.285697        -2.663064        -2.714652
 H         1.743831         0.519706        -1.382147
 H         2.043140         0.630748         0.345517
 H         1.802562        -1.034266        -0.472455
 H        -2.869224        -1.123150         1.406681
 H        -2.685957         1.501030         1.196281
 H        -3.439116         0.059014        -1.471581
 H        -2.688382        -2.802731        -0.503336
 H        -3.369683        -3.770605        -2.568793
 H        -4.132750        -2.213641        -3.139191
 H        -2.436361        -2.424523        -3.361955
