19
Iteration:  4737
 C         1.368931         0.049395        -0.492212
 C        -0.024546        -0.094838        -0.217114
 C        -1.133818        -0.278994         0.176436
 C        -2.518233        -0.501978         0.550877
 O        -3.195608         0.493268         1.303089
 C        -3.162853        -0.823532        -0.779654
 O        -4.447701        -1.418807        -0.664251
 C        -3.351368        -2.131477        -1.360543
 C        -3.338177        -2.433750        -2.760502
 H         1.965094        -0.864307        -0.884381
 H         1.487627         0.766537        -1.385857
 H         1.799954         0.445140         0.412906
 H        -2.677351        -1.468299         1.238483
 H        -2.615283         1.255245         1.470291
 H        -3.107411         0.027175        -1.571739
 H        -3.031528        -2.934941        -0.667380
 H        -4.068188        -3.152533        -3.188033
 H        -3.339200        -1.545835        -3.442118
 H        -2.314669        -3.033575        -2.866707
