19
Iteration:  4757
 C         1.374237         0.200148        -0.528068
 C        -0.008915        -0.186121        -0.202749
 C        -1.138916        -0.391003         0.254121
 C        -2.520485        -0.612036         0.596328
 O        -3.135073         0.516755         1.298698
 C        -3.220033        -0.731643        -0.747759
 O        -4.548014        -1.323179        -0.717991
 C        -3.313067        -2.137805        -1.275812
 C        -3.281492        -2.530534        -2.871205
 H         2.027621        -0.726265        -0.668700
 H         1.353331         0.730188        -1.533443
 H         1.919451         0.786788         0.235068
 H        -2.608101        -1.499422         1.170618
 H        -2.432998         1.175323         1.364257
 H        -3.126506         0.275822        -1.333178
 H        -3.208596        -2.888976        -0.467803
 H        -4.103096        -3.197225        -3.227850
 H        -3.370218        -1.781293        -3.633812
 H        -2.332825        -3.199874        -3.148736
