19
Iteration:  3561
 C         1.570474         0.320365        -0.201088
 C         0.175902        -0.041852         0.011920
 C        -0.995365        -0.304090         0.037893
 C        -2.464459        -0.411051         0.325317
 O        -3.222479         0.740038         0.882675
 C        -3.214623        -0.898723        -0.905567
 O        -4.443303        -1.533588        -0.604829
 C        -3.331221        -2.357770        -1.205901
 C        -3.778533        -2.707952        -2.540192
 H         2.326683        -0.582638        -0.143126
 H         1.650200         0.637063        -1.261387
 H         1.804217         1.148555         0.310870
 H        -2.485963        -1.216917         0.986492
 H        -2.521912         1.404036         0.833783
 H        -3.339509        -0.225278        -1.706128
 H        -2.979663        -3.008412        -0.442883
 H        -4.385154        -3.574937        -2.426859
 H        -4.248950        -1.899978        -3.105711
 H        -2.820767        -3.066815        -3.026547
