19
Iteration:  4454charge 0 multiplicity 1
 C         1.539020        -0.065243        -0.430858
 C         0.063798        -0.069227        -0.024414
 C        -1.108405        -0.236906         0.210796
 C        -2.592297        -0.408795         0.464210
 O        -3.207477         0.798944         1.027553
 C        -3.395258        -0.785562        -0.776723
 O        -4.325597        -1.849384        -0.469352
 C        -3.278274        -2.178546        -1.367576
 C        -3.482943        -2.298818        -2.874658
 H         1.829564         0.976592        -0.844447
 H         2.344136        -0.391781         0.287081
 H         1.628726        -0.714212        -1.282251
 H        -2.728273        -1.249541         1.204621
 H        -2.694978         1.059911         1.822782
 H        -3.917984         0.065284        -1.340477
 H        -2.556729        -3.049056        -0.927582
 H        -3.865901        -3.360104        -2.991848
 H        -4.186015        -1.500960        -3.335740
 H        -2.379688        -2.409416        -3.191530
