19
Iteration:  4272charge 0 multiplicity 1
 C         1.355582         0.281494        -0.481737
 C        -0.017093        -0.127175        -0.073653
 C        -1.113893        -0.440336         0.304565
 C        -2.453643        -0.611258         0.607107
 O        -3.096454         0.721119         0.961244
 C        -3.113870        -0.941058        -0.670364
 O        -4.479963        -1.428951        -0.757811
 C        -3.393925        -2.182759        -1.244281
 C        -3.454745        -2.505928        -2.775569
 H         1.885111         0.245780         0.447975
 H         1.622984        -0.526721        -1.257388
 H         1.425101         1.303127        -1.141130
 H        -2.689310        -1.255331         1.482584
 H        -2.455452         1.274519         1.463140
 H        -2.903499        -0.039262        -1.362316
 H        -3.178801        -2.968146        -0.533037
 H        -4.177866        -3.400987        -2.857705
 H        -3.562525        -1.748786        -3.663380
 H        -2.552854        -3.129386        -3.091225
