19
Iteration:   656charge 0 multiplicity 1
 C         1.437078         0.135646        -0.286783
 C         0.053534        -0.015882         0.181806
 C        -1.153845         0.053593         0.264578
 C        -2.606702        -0.160298         0.122734
 O        -3.252455         1.222321         0.145116
 C        -3.154983        -1.021360        -0.935197
 O        -4.500020        -1.478640        -0.803026
 C        -3.437994        -2.393710        -0.798647
 C        -3.145297        -3.452761        -1.958811
 H         1.678135         1.102303        -0.798710
 H         2.194066        -0.207962         0.571121
 H         1.531423        -0.753261        -0.923813
 H        -2.894212        -0.703197         1.125473
 H        -2.627488         1.867108         0.555895
 H        -3.119800        -0.882508        -2.059633
 H        -3.266568        -2.889252         0.227877
 H        -3.930216        -4.185251        -1.854714
 H        -3.336411        -2.952413        -2.897458
 H        -2.206554        -3.902247        -1.791933
