19
Iteration:  1647
 C         1.490427         0.092201        -0.362131
 C         0.054562         0.020811        -0.075845
 C        -1.125959        -0.204867         0.034940
 C        -2.601741        -0.208265         0.260036
 O        -3.157577         1.083517         0.515731
 C        -3.319705        -0.897402        -0.880279
 O        -4.512874        -1.588037        -0.618044
 C        -3.292051        -2.359175        -0.933969
 C        -3.310299        -3.096872        -2.204740
 H         1.816559         1.018767         0.181572
 H         1.880494        -0.746426         0.122249
 H         1.710463         0.221917        -1.440854
 H        -2.710313        -0.789427         1.254113
 H        -2.742578         1.379614         1.365885
 H        -3.313900        -0.224491        -1.726406
 H        -2.920582        -3.039072        -0.027186
 H        -3.861654        -4.030376        -2.129865
 H        -3.710546        -2.392872        -2.901599
 H        -2.276987        -3.362085        -2.406063
