19
Iteration:   988
 C         1.458206        -0.004982        -0.320560
 C         0.033489        -0.059963        -0.019279
 C        -1.141574        -0.107359         0.219618
 C        -2.637971        -0.091558         0.276884
 O        -3.262805         1.124431         0.232044
 C        -3.240012        -0.890890        -0.934005
 O        -4.531918        -1.520830        -0.804447
 C        -3.339636        -2.371590        -0.800219
 C        -3.066735        -3.227444        -1.957633
 H         2.242366        -0.407372         0.413055
 H         1.766761        -0.270602        -1.305394
 H         1.632433         1.099376        -0.358033
 H        -3.074377        -0.626976         1.096367
 H        -3.491948         1.528060         1.145852
 H        -3.008640        -0.537349        -1.958873
 H        -3.050991        -2.786998         0.188895
 H        -3.805160        -4.091615        -1.920844
 H        -3.394998        -2.785764        -2.929717
 H        -2.003958        -3.607268        -2.086488
