19
Iteration:  3680charge 0 multiplicity 1
 C         1.582660         0.183724        -0.324743
 C         0.065996        -0.146976        -0.181803
 C        -1.096684        -0.235992         0.091296
 C        -2.534104        -0.322557         0.390497
 O        -3.132197         0.747954         1.016037
 C        -3.332495        -0.807987        -0.886469
 O        -4.525410        -1.601721        -0.508674
 C        -3.388695        -2.264979        -1.173688
 C        -3.404296        -2.702327        -2.642760
 H         1.925966         0.096261         0.684607
 H         2.192341        -0.587291        -0.847861
 H         1.704435         1.169149        -0.829471
 H        -2.731296        -1.177319         1.114030
 H        -2.815388         1.591060         0.621567
 H        -3.513508        -0.137957        -1.694064
 H        -3.024361        -3.010013        -0.518096
 H        -3.734167        -3.687932        -2.755663
 H        -3.907727        -2.126624        -3.397118
 H        -2.395238        -2.797862        -3.022974
