19
Iteration:  3710charge 0 multiplicity 1
 C         1.515595         0.151473        -0.418065
 C        -0.016630        -0.138020        -0.159843
 C        -1.181466        -0.317417         0.114059
 C        -2.538427        -0.400534         0.507509
 O        -3.073215         0.815074         1.009779
 C        -3.388044        -0.772910        -0.776760
 O        -4.466113        -1.616548        -0.720532
 C        -3.272601        -2.207526        -1.172226
 C        -3.382039        -2.695753        -2.594683
 H         1.917640         0.553937         0.469972
 H         2.050923        -0.788228        -0.677196
 H         1.615262         1.102085        -1.137057
 H        -2.794448        -1.212626         1.248796
 H        -2.419023         1.509023         0.826410
 H        -3.481229         0.128590        -1.439756
 H        -3.066390        -3.085885        -0.499551
 H        -3.494251        -3.783708        -2.463493
 H        -4.251863        -2.304733        -3.214242
 H        -2.394211        -2.620925        -3.009540
