19
Iteration:  3623
 C         1.593733         0.139143        -0.230982
 C         0.153150         0.140342        -0.076088
 C        -1.019868        -0.123240         0.073589
 C        -2.444368        -0.374046         0.427517
 O        -3.181250         0.811447         1.020318
 C        -3.207344        -0.906478        -0.886370
 O        -4.478222        -1.662374        -0.597612
 C        -3.367239        -2.344415        -1.231110
 C        -3.734472        -2.799058        -2.671997
 H         1.994489        -0.422657         0.554669
 H         1.781843        -0.335829        -1.218359
 H         2.313562         1.149788        -0.160246
 H        -2.383010        -1.136735         1.310815
 H        -3.079692         1.457290         0.301068
 H        -3.506787        -0.207591        -1.744877
 H        -2.880248        -3.154732        -0.578950
 H        -4.619245        -3.447226        -2.759284
 H        -3.932419        -1.858439        -3.304702
 H        -2.925538        -3.107079        -3.277060
