19
Iteration:  1150
 C         1.422371        -0.155552        -0.247466
 C        -0.064937         0.011542        -0.188774
 C        -1.242739        -0.027367         0.102962
 C        -2.599436        -0.055918         0.263622
 O        -3.258730         1.277537         0.443530
 C        -3.263846        -0.910996        -0.835813
 O        -4.464164        -1.632744        -0.687416
 C        -3.238355        -2.441253        -0.858139
 C        -3.090085        -3.194514        -2.115901
 H         1.944017         0.738812        -0.002499
 H         1.750237        -0.928219         0.522145
 H         1.552036        -0.436152        -1.266992
 H        -2.792645        -0.602278         1.207353
 H        -2.833603         1.808269        -0.304632
 H        -3.350423        -0.389674        -1.827049
 H        -2.650040        -2.770924         0.001181
 H        -3.462732        -4.193304        -1.961232
 H        -3.725896        -2.861853        -2.892937
 H        -2.058098        -3.263468        -2.302290
