19
Iteration:   305
 C         1.594945         0.193289        -0.002672
 C         0.103848        -0.036068         0.056325
 C        -1.153369        -0.055089        -0.098970
 C        -2.595688        -0.117294         0.164712
 O        -3.276205         1.215774        -0.072130
 C        -3.212628        -0.955562        -0.909094
 O        -4.568035        -1.614349        -0.629030
 C        -3.420387        -2.423223        -0.761999
 C        -3.223723        -3.369393        -1.904032
 H         1.927199        -0.331352        -0.863737
 H         1.828983         1.257015        -0.190987
 H         2.071823        -0.301078         0.719192
 H        -2.892511        -0.413764         1.167721
 H        -2.950766         1.787196         0.696974
 H        -3.158146        -0.620408        -1.904426
 H        -3.160558        -2.760059         0.252551
 H        -3.672797        -4.341406        -1.756221
 H        -3.558562        -2.979350        -2.884223
 H        -2.161659        -3.634902        -1.855140
