19
Iteration:   592charge 0 multiplicity 1
 C         1.397242        -0.118947        -0.220120
 C        -0.054623        -0.040885        -0.173301
 C        -1.251243         0.097919         0.205333
 C        -2.745351        -0.030252         0.290745
 O        -3.289545         1.237224         0.061968
 C        -3.064663        -0.932394        -0.881291
 O        -4.407418        -1.579388        -0.763697
 C        -3.343506        -2.417222        -0.733517
 C        -3.043805        -3.314236        -1.906289
 H         1.900698         0.812829         0.080161
 H         1.801165        -0.994198         0.349981
 H         1.746597        -0.148540        -1.225538
 H        -3.096171        -0.594728         1.163011
 H        -3.276759         1.654154         0.895085
 H        -2.663035        -0.435217        -1.803206
 H        -3.047057        -2.839318         0.238129
 H        -3.770663        -4.120700        -2.012560
 H        -3.239605        -2.816898        -2.858427
 H        -2.049284        -3.838205        -1.880253
