19
Iteration:    97charge 0 multiplicity 1
 C         1.616644         0.311729        -0.137300
 C         0.186474         0.002467         0.174848
 C        -1.062160        -0.097198         0.088757
 C        -2.601874        -0.178941         0.074478
 O        -3.372780         1.160451         0.057058
 C        -3.112008        -1.026463        -1.056134
 O        -4.567272        -1.450795        -0.890089
 C        -3.488625        -2.417099        -0.670567
 C        -3.301817        -3.473094        -1.677287
 H         2.183811         1.040227         0.550539
 H         2.400367        -0.580146         0.026856
 H         1.471736         0.591441        -1.171964
 H        -2.908487        -0.610523         1.059193
 H        -2.870151         1.719170        -0.503347
 H        -2.859314        -0.732575        -2.054427
 H        -3.331690        -2.876623         0.309491
 H        -4.210494        -4.118658        -1.553010
 H        -3.386784        -3.049988        -2.689033
 H        -2.406717        -4.064979        -1.508442
