19
Iteration:   476
 C         1.417778        -0.137615        -0.088662
 C        -0.064155        -0.131247        -0.198463
 C        -1.264738         0.037788         0.058633
 C        -2.751181         0.030769         0.238385
 O        -3.248687         1.454881         0.104780
 C        -3.337925        -0.956275        -0.823171
 O        -4.410505        -1.738028        -0.625058
 C        -3.156584        -2.467095        -0.735705
 C        -2.997948        -3.266670        -2.007529
 H         1.706642        -0.471474         0.926820
 H         1.822461        -0.970910        -0.598350
 H         1.897357         0.880822        -0.219184
 H        -3.139775        -0.127883         1.254190
 H        -3.049439         1.753589        -0.765192
 H        -3.228918        -0.525802        -1.798639
 H        -2.652247        -2.852959         0.163290
 H        -3.376868        -4.266803        -1.991929
 H        -3.640599        -2.790381        -2.771538
 H        -2.050715        -3.285117        -2.488031
