19
Iteration:  2047
 C         1.414439         0.218550        -0.392202
 C        -0.024108        -0.105106        -0.174928
 C        -1.178058        -0.114286         0.144447
 C        -2.550327        -0.318494         0.396880
 O        -3.155371         1.004248         0.699345
 C        -3.081407        -0.890328        -0.890398
 O        -4.498161        -1.365144        -0.800717
 C        -3.420117        -2.386077        -0.889031
 C        -3.331323        -3.232541        -2.226621
 H         2.114052        -0.085420         0.357713
 H         1.837366        -0.098930        -1.402780
 H         1.600439         1.304893        -0.460796
 H        -2.733017        -1.109799         1.011612
 H        -2.467674         1.678588         0.650290
 H        -2.923859        -0.250069        -1.769699
 H        -3.027474        -2.911119         0.089163
 H        -4.141164        -3.988176        -2.197044
 H        -3.425584        -2.817197        -3.257789
 H        -2.442608        -3.885129        -2.294467
