19
Iteration:  3088
 C         1.495875        -0.061502        -0.226726
 C         0.041880        -0.103161        -0.283039
 C        -1.121415        -0.026182         0.015948
 C        -2.524157        -0.320937         0.445422
 O        -3.251343         0.917762         0.809351
 C        -3.317493        -0.808743        -0.846583
 O        -4.437696        -1.756240        -0.420166
 C        -3.281563        -2.248867        -1.180628
 C        -3.389360        -2.733321        -2.619660
 H         1.837063        -0.413140         0.774199
 H         1.956741        -0.519665        -1.104414
 H         1.847706         1.016460        -0.396841
 H        -2.396142        -1.183124         1.276384
 H        -2.690491         1.595288         1.209948
 H        -3.610333        -0.030444        -1.525460
 H        -2.657696        -2.853292        -0.460821
 H        -3.674312        -3.865408        -2.800127
 H        -4.135799        -1.992550        -2.988097
 H        -2.412428        -2.598374        -3.140059
