19
Iteration:  3184charge 0 multiplicity 1
 C         1.476658        -0.043689        -0.426462
 C         0.074109        -0.039979        -0.074895
 C        -1.104159        -0.176659         0.273070
 C        -2.560103        -0.211696         0.557116
 O        -3.219067         1.023132         0.652710
 C        -3.346716        -0.936064        -0.716834
 O        -4.425791        -1.814931        -0.414897
 C        -3.221280        -2.297374        -1.290572
 C        -3.395598        -2.627517        -2.730806
 H         2.138001         0.693217         0.211094
 H         1.803837        -1.115134        -0.425632
 H         1.556140         0.112873        -1.414920
 H        -2.918326        -0.865537         1.393076
 H        -2.907214         1.359765         1.505064
 H        -3.483348        -0.203252        -1.487575
 H        -2.694703        -2.986528        -0.655436
 H        -3.890099        -3.642925        -2.840984
 H        -4.039903        -1.869362        -3.191295
 H        -2.429458        -2.707678        -3.252541
