19
Iteration:   572charge 0 multiplicity 1
 C         1.345788        -0.178535        -0.268934
 C        -0.029671         0.006602         0.090988
 C        -1.204612         0.141372         0.107597
 C        -2.618573        -0.023195         0.192484
 O        -3.304313         1.275129         0.096998
 C        -3.267353        -0.994399        -0.899591
 O        -4.510442        -1.548405        -0.739366
 C        -3.243932        -2.423905        -0.772099
 C        -2.987143        -3.342361        -1.903596
 H         2.018539         0.556468         0.231360
 H         1.754564        -1.089363         0.060960
 H         1.474463         0.022687        -1.340946
 H        -2.672736        -0.614304         1.093137
 H        -3.042837         1.735387         0.919015
 H        -3.066615        -0.603643        -1.920985
 H        -3.041499        -2.753296         0.193908
 H        -3.570922        -4.283550        -1.914998
 H        -3.004982        -2.984367        -2.988070
 H        -1.869349        -3.704355        -1.915600
