19
Iteration:  2260charge 0 multiplicity 1
 C         1.524505         0.267514        -0.238804
 C         0.067240        -0.022669        -0.045861
 C        -1.124941        -0.232002         0.007794
 C        -2.488715        -0.250441         0.259096
 O        -3.072432         1.030249         0.510320
 C        -3.306884        -0.899830        -0.848377
 O        -4.529185        -1.636045        -0.407018
 C        -3.422693        -2.388451        -1.041325
 C        -3.411183        -3.057028        -2.443209
 H         1.578984         1.323696        -0.719798
 H         2.023266         0.344794         0.709012
 H         2.126455        -0.444610        -0.793155
 H        -2.694261        -0.824430         1.183415
 H        -2.741948         1.393354         1.331901
 H        -3.605929        -0.435124        -1.819175
 H        -2.779295        -2.949465        -0.162841
 H        -4.227849        -3.826349        -2.467852
 H        -3.755311        -2.288264        -3.223139
 H        -2.455767        -3.492468        -2.761796
