19
Iteration:  3843
 C         1.314286        -0.144855        -0.606643
 C        -0.052316        -0.013660        -0.189916
 C        -1.146600        -0.094750         0.293705
 C        -2.546925        -0.467932         0.630118
 O        -3.225359         0.822350         1.086023
 C        -3.256873        -0.829842        -0.712441
 O        -4.444314        -1.600868        -0.727510
 C        -3.213743        -2.179238        -1.254884
 C        -3.198964        -2.589094        -2.619735
 H         1.716201         0.748721        -0.858896
 H         2.052789        -0.474612         0.137291
 H         1.550014        -0.788019        -1.552326
 H        -2.828390        -1.316988         1.290351
 H        -3.108308         1.472969         0.367543
 H        -3.172412        -0.062392        -1.412751
 H        -2.760351        -2.846324        -0.596161
 H        -3.998480        -3.320930        -2.640637
 H        -3.312849        -1.776267        -3.393821
 H        -2.322881        -3.233670        -2.814909
