19
Iteration:  3658charge 0 multiplicity 1
 C         1.502821         0.140769        -0.251362
 C         0.092745        -0.033805        -0.078446
 C        -1.136493        -0.089296        -0.000667
 C        -2.408748        -0.425228         0.378139
 O        -3.094263         0.752518         0.980892
 C        -3.285420        -0.846499        -0.882341
 O        -4.528421        -1.632999        -0.522197
 C        -3.383796        -2.280582        -1.218272
 C        -3.512415        -2.726857        -2.617357
 H         2.084426        -0.125475         0.637171
 H         1.820758        -0.598171        -1.010273
 H         1.747223         1.127702        -0.612508
 H        -2.473178        -1.224619         1.162895
 H        -3.006699         1.496437         0.367537
 H        -3.252943        -0.115976        -1.658461
 H        -2.930297        -2.948926        -0.533001
 H        -4.139547        -3.533018        -2.850419
 H        -3.920051        -1.823655        -3.049547
 H        -2.500691        -2.922949        -3.009469
