19
Iteration:  3285
 C         1.476718        -0.003006        -0.435362
 C        -0.031198         0.000407        -0.112889
 C        -1.229611        -0.217467         0.150115
 C        -2.598889        -0.306317         0.471296
 O        -3.004184         0.935129         0.915085
 C        -3.471374        -0.770733        -0.775048
 O        -4.481959        -1.763320        -0.668163
 C        -3.265793        -2.238478        -1.165283
 C        -3.282979        -2.735675        -2.607695
 H         1.803074         1.032511        -0.952132
 H         2.147147        -0.123900         0.406231
 H         1.612688        -0.728060        -1.161913
 H        -2.679940        -1.143514         1.331087
 H        -2.314364         1.193128         1.565065
 H        -3.647693         0.072464        -1.459695
 H        -2.483720        -2.655843        -0.476080
 H        -3.792571        -3.789122        -2.417952
 H        -3.927678        -2.278567        -3.421264
 H        -2.216286        -2.961321        -2.936737
