19
Iteration:  3371
 C         1.503813         0.065037        -0.501591
 C         0.074951         0.075975        -0.047978
 C        -1.119098        -0.105269         0.194946
 C        -2.506902        -0.458699         0.502640
 O        -3.307490         0.792518         0.899379
 C        -3.075903        -0.944228        -0.808227
 O        -4.462517        -1.473578        -0.610056
 C        -3.407455        -2.323681        -1.175838
 C        -3.451745        -2.771445        -2.641919
 H         1.804377         0.285567        -1.619170
 H         2.153675         0.711150         0.098402
 H         1.943774        -0.878723        -0.191978
 H        -2.461575        -1.068701         1.359721
 H        -2.690192         1.408511         1.329842
 H        -3.150280        -0.215613        -1.637947
 H        -2.870229        -3.071336        -0.479629
 H        -4.219383        -3.619037        -2.662993
 H        -3.967410        -1.954717        -3.189810
 H        -2.550388        -3.038300        -3.165961
