19
Iteration:  2732
 C         1.478690         0.327941        -0.252964
 C         0.056967        -0.085226        -0.106350
 C        -1.122500        -0.261644         0.168140
 C        -2.564761        -0.460384         0.428996
 O        -3.065437         0.925748         0.663310
 C        -3.171246        -0.970583        -0.896498
 O        -4.482560        -1.558125        -0.601169
 C        -3.357945        -2.360099        -1.097018
 C        -3.568890        -2.838701        -2.445907
 H         1.586562         1.523184        -0.093934
 H         2.132407        -0.061042         0.512727
 H         1.799831         0.032830        -1.201339
 H        -2.662459        -1.019172         1.360972
 H        -2.687190         1.359444        -0.129247
 H        -2.897872        -0.178186        -1.649603
 H        -2.960478        -2.885293        -0.284708
 H        -4.270493        -3.683263        -2.739759
 H        -3.882273        -1.883746        -2.859891
 H        -2.503984        -3.197755        -2.761790
