19
Iteration:  1567charge 0 multiplicity 1
 C         1.536185         0.168484        -0.340988
 C         0.146095        -0.001611        -0.079523
 C        -1.059662        -0.081656         0.048886
 C        -2.518463        -0.303009         0.207243
 O        -3.228820         0.901786         0.674593
 C        -3.263216        -0.892140        -0.910067
 O        -4.559653        -1.427639        -0.805820
 C        -3.419940        -2.352557        -0.805576
 C        -3.335200        -3.132555        -2.076921
 H         2.193984         0.465543         0.434550
 H         1.971305        -0.596742        -1.066527
 H         1.534617         1.004896        -1.020095
 H        -2.598841        -0.799880         1.192474
 H        -3.420425         1.247836        -0.248878
 H        -2.843593        -0.450032        -1.867532
 H        -3.203228        -2.901622         0.186584
 H        -4.151226        -3.882185        -1.956537
 H        -3.604074        -2.676648        -3.087393
 H        -2.404966        -3.734380        -2.259152
