19
Iteration:  1110
 C         1.379858        -0.180818        -0.348676
 C         0.033005        -0.091729        -0.015400
 C        -1.157289         0.011826         0.113400
 C        -2.675163        -0.053645         0.286774
 O        -3.315381         1.265651         0.337764
 C        -3.221825        -0.905885        -0.896632
 O        -4.477536        -1.594012        -0.678304
 C        -3.212123        -2.350148        -0.880843
 C        -3.030077        -3.195674        -2.021757
 H         2.199396         0.496318         0.092590
 H         1.709191        -1.184384        -0.258922
 H         1.558773        -0.140625        -1.464595
 H        -2.800111        -0.476385         1.342214
 H        -4.273328         1.074731         0.523501
 H        -3.268911        -0.257684        -1.772049
 H        -3.014208        -2.785168         0.138927
 H        -3.706270        -4.123187        -2.099382
 H        -3.327944        -2.610688        -2.957624
 H        -1.896968        -3.413008        -2.224145
