19
Iteration:   789charge 0 multiplicity 1
 C         1.560242         0.348533         0.032929
 C         0.106307         0.315923         0.118226
 C        -1.057137        -0.129405         0.044458
 C        -2.539561        -0.255741         0.034150
 O        -3.005958         1.236091         0.255643
 C        -3.217929        -1.127171        -0.981323
 O        -4.563853        -1.538185        -0.640929
 C        -3.456311        -2.542846        -0.882312
 C        -3.571182        -3.441482        -2.086148
 H         2.200935        -0.014561        -0.770133
 H         2.033756         1.338902         0.326221
 H         1.919570        -0.309527         0.846777
 H        -2.883294        -0.703612         1.001948
 H        -3.188290         1.417746        -0.731970
 H        -3.233031        -0.838829        -2.067695
 H        -3.197928        -2.940671         0.104143
 H        -4.238711        -4.190726        -1.930158
 H        -3.667801        -2.901877        -2.980623
 H        -2.628036        -3.906041        -2.281464
