19
Iteration:   539
 C         1.424881        -0.200444        -0.238220
 C         0.002504         0.006381         0.080514
 C        -1.188679        -0.043758         0.106578
 C        -2.689369        -0.028252         0.141073
 O        -3.409205         1.303450         0.145646
 C        -3.319216        -0.865792        -0.976511
 O        -4.487841        -1.672569        -0.703735
 C        -3.178067        -2.332733        -0.812864
 C        -2.975745        -3.271790        -1.857717
 H         2.065244         0.311252         0.512428
 H         1.641654        -1.241948        -0.388432
 H         1.748326         0.212562        -1.208858
 H        -2.830995        -0.605911         1.095522
 H        -2.780332         1.965796         0.320038
 H        -3.185822        -0.383272        -1.984851
 H        -2.623661        -2.601710         0.037708
 H        -3.401416        -4.247237        -1.463360
 H        -3.492454        -3.019660        -2.843943
 H        -1.830478        -3.516711        -1.757042
