19
Iteration:  1469charge 0 multiplicity 1
 C         1.511787         0.304317        -0.420983
 C         0.077197         0.081183        -0.045243
 C        -1.079932        -0.178207         0.227760
 C        -2.534520        -0.359866         0.321136
 O        -3.151688         1.031459         0.516298
 C        -3.052889        -1.010895        -0.881826
 O        -4.382845        -1.319234        -0.780488
 C        -3.504050        -2.452205        -0.877994
 C        -3.544427        -3.263980        -2.116294
 H         2.167698        -0.467945        -0.033688
 H         1.598759         0.672479        -1.485130
 H         1.741483         1.222149         0.122989
 H        -2.998540        -0.877067         1.177110
 H        -3.864446         0.804411        -0.156572
 H        -2.719764        -0.639461        -1.891890
 H        -3.362174        -3.032221         0.112944
 H        -4.456227        -3.817841        -2.220064
 H        -3.460211        -2.684147        -3.069503
 H        -2.670166        -3.891228        -2.086413
