19
Iteration:  4893
 C         1.514458         0.265615        -0.344440
 C         0.143516        -0.114886         0.036779
 C        -1.079911        -0.219845         0.180274
 C        -2.483736        -0.601686         0.478815
 O        -3.102639         0.435129         1.241965
 C        -3.156187        -0.847398        -0.825767
 O        -4.472936        -1.391768        -0.675610
 C        -3.495519        -2.222954        -1.335027
 C        -3.594368        -2.512420        -2.892419
 H         2.360798         0.113421         0.295224
 H         1.559859        -0.240354        -1.301540
 H         1.601628         1.281961        -0.772495
 H        -2.436409        -1.476772         1.117662
 H        -2.826912         1.249859         0.755317
 H        -3.003913        -0.134429        -1.578550
 H        -3.211594        -3.055482        -0.730373
 H        -4.611618        -2.928682        -3.072372
 H        -3.768689        -1.447007        -3.275644
 H        -2.738371        -2.916675        -3.327125
