19
Iteration:   492
 C         1.239745        -0.164377        -0.050855
 C        -0.162058        -0.138524        -0.272427
 C        -1.298310        -0.025448         0.071621
 C        -2.706943         0.135726         0.213375
 O        -3.241149         1.415280         0.158110
 C        -3.117447        -0.933169        -0.833890
 O        -4.396322        -1.714745        -0.606788
 C        -3.106716        -2.412657        -0.752788
 C        -3.020249        -3.301659        -2.029036
 H         1.430053        -0.047892         1.018463
 H         1.812024        -0.947131        -0.675832
 H         1.681138         0.694349        -0.514723
 H        -2.929179        -0.385690         1.152866
 H        -2.833625         1.964704        -0.565899
 H        -3.082771        -0.597985        -1.904447
 H        -2.995480        -2.881486         0.258848
 H        -3.244294        -4.403665        -1.822192
 H        -3.743873        -2.957902        -2.801783
 H        -1.945650        -3.433837        -2.408716
