19
Iteration:  2127charge 0 multiplicity 1
 C         1.600626         0.249587        -0.256649
 C         0.213000         0.126980         0.091061
 C        -1.002174        -0.011650        -0.043325
 C        -2.463350        -0.277747         0.297171
 O        -3.193409         0.907776         0.561481
 C        -3.204052        -1.055902        -0.890517
 O        -4.571436        -1.490635        -0.518123
 C        -3.487761        -2.436494        -0.973554
 C        -3.544702        -3.091458        -2.370733
 H         2.161208         0.641026         0.623821
 H         2.032068        -0.790039        -0.384967
 H         1.710862         0.909148        -1.159916
 H        -2.660623        -0.952072         1.094980
 H        -3.515488         1.077358        -0.325702
 H        -3.306147        -0.423730        -1.791165
 H        -3.026674        -3.280804        -0.240552
 H        -4.175387        -4.023012        -2.421116
 H        -3.922527        -2.381092        -3.086406
 H        -2.506060        -3.367176        -2.513433
