19
Iteration:  3712charge 0 multiplicity 1
 C         1.503041         0.155571        -0.427897
 C        -0.022242        -0.137998        -0.147505
 C        -1.199159        -0.311596         0.118491
 C        -2.554995        -0.397027         0.520135
 O        -3.052853         0.809338         1.003419
 C        -3.375144        -0.754649        -0.777233
 O        -4.469566        -1.621028        -0.719626
 C        -3.266870        -2.221191        -1.180655
 C        -3.376981        -2.703044        -2.598631
 H         1.902497         0.559155         0.452174
 H         2.041693        -0.777722        -0.692536
 H         1.675408         1.027716        -1.152227
 H        -2.783531        -1.228416         1.265095
 H        -2.413940         1.514891         0.848060
 H        -3.438897         0.071627        -1.450250
 H        -3.099809        -3.020978        -0.511887
 H        -3.523827        -3.727515        -2.458427
 H        -4.185217        -2.314034        -3.149081
 H        -2.417917        -2.573182        -3.040005
