19
Iteration:  4010
 C         1.532928         0.216187        -0.307493
 C         0.111853        -0.105957         0.043161
 C        -1.075794        -0.454908         0.174758
 C        -2.493055        -0.440650         0.491594
 O        -3.119045         0.881835         0.773899
 C        -3.267192        -0.828791        -0.725838
 O        -4.488561        -1.801803        -0.532228
 C        -3.344776        -2.197991        -1.291323
 C        -3.595328        -2.523834        -2.789506
 H         1.652421         0.033697        -1.348330
 H         1.554563         1.332859        -0.069435
 H         2.466237        -0.228930         0.142579
 H        -2.715398        -1.066793         1.326807
 H        -2.668756         1.544108         1.318464
 H        -3.408925        -0.005370        -1.487635
 H        -2.739535        -3.009620        -0.736853
 H        -4.502488        -3.180069        -2.977109
 H        -3.779974        -1.563703        -3.315326
 H        -2.667825        -3.010918        -3.129979
