19
Iteration:  4921charge 0 multiplicity 1
 C         1.616945         0.200153        -0.248139
 C         0.200778         0.149206        -0.071435
 C        -0.913710        -0.218425         0.247057
 C        -2.444468        -0.550171         0.390696
 O        -3.126877         0.411045         1.285694
 C        -3.309477        -0.783782        -0.776404
 O        -4.533215        -1.558417        -0.711882
 C        -3.452182        -2.150879        -1.434184
 C        -3.707040        -2.527441        -2.867536
 H         2.220061        -0.022615         0.697069
 H         1.696057        -0.713234        -0.950694
 H         1.993214         1.078571        -0.767779
 H        -2.383471        -1.560941         1.039791
 H        -2.800564         1.273522         0.946033
 H        -3.407250        -0.023429        -1.704697
 H        -3.214417        -3.086149        -0.795484
 H        -4.722647        -2.886687        -2.962579
 H        -3.868785        -1.669489        -3.543341
 H        -2.944982        -3.351721        -3.273543
