19
Iteration:  2986
 C         1.333848         0.227423        -0.376915
 C         0.021296        -0.224023        -0.100441
 C        -1.119886        -0.294483         0.239565
 C        -2.520465        -0.413855         0.423318
 O        -3.158500         0.986246         0.786018
 C        -3.168908        -0.860552        -0.894413
 O        -4.426572        -1.610628        -0.653823
 C        -3.237050        -2.265946        -1.098061
 C        -3.457873        -2.797098        -2.514635
 H         2.081413        -0.534915        -0.654198
 H         1.196538         0.817011        -1.275637
 H         1.617691         0.646273         0.486196
 H        -2.734561        -1.042713         1.348421
 H        -2.331155         1.499499         0.932672
 H        -3.240392         0.080020        -1.409705
 H        -2.664929        -2.809344        -0.386635
 H        -4.280319        -3.537921        -2.306252
 H        -3.971284        -2.065291        -3.246822
 H        -2.629763        -3.412792        -3.016912
