19
Iteration:  1092
 C         1.427385        -0.211209        -0.415458
 C        -0.064442        -0.129487         0.008456
 C        -1.251231        -0.004029         0.146918
 C        -2.639419        -0.070249         0.254790
 O        -3.388650         1.169490         0.271753
 C        -3.170261        -0.876455        -0.870624
 O        -4.410463        -1.493501        -0.642663
 C        -3.238458        -2.297494        -0.786272
 C        -3.010408        -3.204718        -2.110123
 H         1.911613         0.486138         0.280606
 H         1.863937        -1.304019        -0.440242
 H         1.520910         0.309895        -1.404809
 H        -2.912451        -0.493815         1.241709
 H        -3.856697         1.399259         1.096851
 H        -2.943251        -0.446026        -1.847024
 H        -2.789765        -2.740593         0.091498
 H        -3.639633        -4.045605        -1.941303
 H        -3.098537        -2.717076        -3.075790
 H        -2.024801        -3.608776        -2.089518
