19
Iteration:  2930
 C         1.460032         0.236784        -0.461176
 C         0.103064         0.095433         0.010215
 C        -1.023879        -0.245625         0.308179
 C        -2.465412        -0.342448         0.496212
 O        -3.096700         0.785796         0.804473
 C        -3.257028        -0.922710        -0.800214
 O        -4.573980        -1.471509        -0.730213
 C        -3.504671        -2.399678        -1.146049
 C        -3.398485        -2.892371        -2.556164
 H         1.547633        -0.591891        -1.262419
 H         1.749648         1.222025        -0.853678
 H         2.133267         0.064184         0.293202
 H        -2.587463        -0.956895         1.488747
 H        -2.749629         1.570269         0.353803
 H        -3.118309        -0.111230        -1.617890
 H        -3.369513        -3.044391        -0.346431
 H        -4.176329        -3.702672        -2.685101
 H        -3.367737        -2.189617        -3.474314
 H        -2.406068        -3.528183        -2.561680
