19
Iteration:  3139charge 0 multiplicity 1
 C         1.465304        -0.071549        -0.397662
 C         0.054079        -0.016036         0.069530
 C        -1.177050        -0.159538         0.112167
 C        -2.605880        -0.239040         0.327248
 O        -3.229373         1.000221         0.822298
 C        -3.369740        -0.829739        -0.789658
 O        -4.296663        -1.808659        -0.495573
 C        -3.066949        -2.233281        -1.246187
 C        -3.530517        -2.713731        -2.627318
 H         2.186596         0.099017         0.484164
 H         1.698745        -1.074635        -0.865775
 H         1.710345         0.535377        -1.181876
 H        -2.673467        -1.050764         1.064620
 H        -2.778053         1.322349         1.628564
 H        -3.759773        -0.155429        -1.545654
 H        -2.382207        -2.819657        -0.702287
 H        -4.154188        -3.560579        -2.376335
 H        -4.113210        -1.992250        -3.225525
 H        -2.654920        -3.098765        -3.152338
