19
Iteration:   890charge 0 multiplicity 1
 C         1.538758         0.205281        -0.038771
 C         0.101229         0.144159         0.115558
 C        -1.107585        -0.034592        -0.016436
 C        -2.537440        -0.147055         0.215722
 O        -3.128209         1.113556         0.144608
 C        -3.210955        -0.983865        -1.015132
 O        -4.500712        -1.537090        -0.621695
 C        -3.413471        -2.461828        -0.865140
 C        -3.441253        -3.388027        -2.080881
 H         2.116323        -0.742005        -0.232847
 H         1.904947         0.784015        -0.826246
 H         1.945382         0.773741         0.824526
 H        -2.728291        -0.729471         1.102188
 H        -3.855082         1.231601         0.804445
 H        -3.086411        -0.450526        -1.955219
 H        -3.223144        -3.060712        -0.003256
 H        -4.091919        -4.178515        -2.007431
 H        -3.689333        -2.869795        -2.992308
 H        -2.486469        -3.861047        -2.155973
