19
Iteration:  2908charge 0 multiplicity 1
 C         1.544137         0.234569        -0.432785
 C         0.083936         0.063826        -0.023318
 C        -1.113512        -0.141967         0.173018
 C        -2.501352        -0.542457         0.454155
 O        -3.142990         0.820763         0.883689
 C        -3.144894        -0.963711        -0.844040
 O        -4.587093        -1.408850        -0.751466
 C        -3.497664        -2.363939        -1.097545
 C        -3.410076        -2.902079        -2.454442
 H         1.603175        -0.324291        -1.461407
 H         1.821687         1.294042        -0.588536
 H         2.194243        -0.166214         0.250077
 H        -2.722249        -1.145925         1.440376
 H        -3.007657         1.455740         0.140692
 H        -2.604124        -0.368734        -1.653889
 H        -3.390553        -2.872860        -0.209446
 H        -4.117043        -3.714557        -2.817845
 H        -3.450936        -1.972119        -3.165325
 H        -2.287622        -3.273599        -2.615394
