19
Iteration:   645charge 0 multiplicity 1
 C         1.399457         0.050818        -0.284706
 C         0.027004        -0.050576         0.112188
 C        -1.159313         0.050447         0.251927
 C        -2.630698        -0.087069         0.220013
 O        -3.275615         1.159016         0.100363
 C        -3.150277        -0.970207        -1.014830
 O        -4.471735        -1.444462        -0.793651
 C        -3.356186        -2.494892        -0.762326
 C        -3.191960        -3.395865        -1.899701
 H         1.550484         1.125078        -0.529673
 H         2.125968        -0.029941         0.637462
 H         1.731119        -0.513581        -1.171954
 H        -3.013179        -0.673266         1.153494
 H        -2.707736         1.721755         0.578569
 H        -2.798651        -0.408884        -1.943929
 H        -3.172292        -2.866873         0.310099
 H        -3.831657        -4.257247        -2.031213
 H        -3.099309        -2.851514        -2.815656
 H        -2.203062        -3.782573        -1.863390
