19
Iteration:   974charge 0 multiplicity 1
 C         1.488457         0.130704        -0.265873
 C         0.035636        -0.182473        -0.048560
 C        -1.148361        -0.160753         0.165122
 C        -2.639408        -0.200452         0.216854
 O        -3.368384         1.170984         0.226084
 C        -3.178045        -0.896367        -0.911859
 O        -4.507659        -1.474508        -0.770853
 C        -3.293895        -2.338520        -0.792110
 C        -3.144590        -3.258164        -1.965690
 H         1.893019        -0.537733         0.440893
 H         1.613184        -0.188137        -1.352507
 H         1.827549         1.127180        -0.108672
 H        -2.762637        -0.739137         1.211983
 H        -2.884379         1.646221         0.883101
 H        -3.018074        -0.324707        -1.864756
 H        -3.105288        -2.788409         0.217137
 H        -3.814962        -4.253085        -1.895592
 H        -3.271071        -2.697170        -2.950800
 H        -2.018821        -3.391658        -1.937162
