19
Iteration:   742charge 0 multiplicity 1
 C         1.467269         0.384513         0.063047
 C         0.121231        -0.149545        -0.095254
 C        -1.099976        -0.174022         0.008568
 C        -2.531993        -0.133060         0.148934
 O        -3.201268         1.096073         0.181143
 C        -3.175263        -1.042406        -0.940267
 O        -4.525382        -1.406357        -0.676769
 C        -3.382079        -2.443857        -0.827309
 C        -3.401877        -3.385840        -1.989405
 H         1.783340         0.802423        -0.879266
 H         1.394037         1.330782         0.694301
 H         2.296056        -0.239442         0.408921
 H        -2.951448        -0.567840         1.026650
 H        -2.651664         1.636682        -0.351845
 H        -2.958182        -0.715045        -1.997169
 H        -3.232573        -2.814126         0.257992
 H        -4.134112        -4.223284        -1.762079
 H        -3.539861        -2.901650        -2.965460
 H        -2.458954        -3.892754        -2.216129
