19
Iteration:  4065
 C         1.574227         0.288866        -0.179820
 C         0.079794        -0.074670        -0.003462
 C        -1.103153        -0.383424         0.018423
 C        -2.479375        -0.430812         0.447557
 O        -3.060432         0.844765         0.858382
 C        -3.341861        -0.891202        -0.760386
 O        -4.369556        -1.687169        -0.577735
 C        -3.283951        -2.311651        -1.326101
 C        -3.779674        -2.561171        -2.762686
 H         2.118338        -0.443760        -0.786940
 H         2.009200         1.350340        -0.404681
 H         2.106464         0.076770         0.900383
 H        -2.586997        -1.102423         1.263528
 H        -2.744187         1.290655         1.647789
 H        -3.501955         0.059477        -1.429161
 H        -2.936826        -3.282528        -0.822631
 H        -4.562830        -3.385404        -2.653263
 H        -4.204726        -1.665887        -3.332671
 H        -2.911000        -2.948118        -3.349495
