19
Iteration:  4979charge 0 multiplicity 1
 C         1.568090         0.195254        -0.057797
 C         0.158092        -0.122417        -0.065667
 C        -1.028581        -0.077310        -0.101950
 C        -2.433800        -0.528859         0.290754
 O        -3.061650         0.407258         1.258665
 C        -3.325965        -0.820189        -0.888984
 O        -4.428848        -1.611248        -0.554394
 C        -3.375785        -2.146252        -1.413901
 C        -3.819353        -2.434831        -2.779269
 H         1.623179         0.616690         0.969596
 H         2.315459        -0.636325        -0.077887
 H         1.810196         0.978855        -0.800494
 H        -2.322651        -1.497634         0.828634
 H        -2.573655         1.217696         1.001625
 H        -3.474124         0.021158        -1.693438
 H        -2.862236        -2.889541        -0.924563
 H        -4.365427        -3.385582        -2.999104
 H        -4.336950        -1.480466        -3.186373
 H        -2.981661        -2.373611        -3.443179
