19
Iteration:  3692charge 0 multiplicity 1
 C         1.501838         0.179826        -0.343660
 C         0.099538        -0.160786        -0.219794
 C        -1.049002        -0.321580         0.092351
 C        -2.530057        -0.373904         0.430560
 O        -3.167042         0.820582         1.038688
 C        -3.333207        -0.792334        -0.836155
 O        -4.590161        -1.616302        -0.576297
 C        -3.344595        -2.204837        -1.213637
 C        -3.359329        -2.755750        -2.628983
 H         1.960887         0.399824         0.644773
 H         2.028545        -0.642415        -0.850152
 H         1.780790         1.052021        -0.872205
 H        -2.652651        -1.185304         1.187127
 H        -2.677778         1.625115         0.777995
 H        -3.332359        -0.085544        -1.600598
 H        -2.774928        -2.750695        -0.510648
 H        -3.743343        -3.739158        -2.658273
 H        -4.042834        -2.115978        -3.060140
 H        -2.370204        -2.571628        -3.088596
