19
Iteration:  4592charge 0 multiplicity 1
 C         1.464718        -0.007860        -0.255545
 C         0.032061        -0.144757        -0.150012
 C        -1.156089        -0.198157         0.180922
 C        -2.632782        -0.450219         0.426802
 O        -2.974934         0.856595         1.072351
 C        -3.454957        -0.840188        -0.695784
 O        -4.340706        -2.044478        -0.415081
 C        -3.305861        -2.157164        -1.436582
 C        -3.511920        -2.191088        -2.915119
 H         1.596817         0.098657        -1.336977
 H         1.845114         0.946029         0.112784
 H         2.093341        -0.916534        -0.020089
 H        -2.626604        -1.192395         1.347650
 H        -2.330741         1.444527         0.633277
 H        -3.842065        -0.015324        -1.348893
 H        -2.460335        -2.685773        -1.107889
 H        -3.935686        -3.114496        -3.291903
 H        -4.170768        -1.494888        -3.284051
 H        -2.448001        -2.100884        -3.326592
