19
Iteration:  1570
 C         1.537189         0.153519        -0.346235
 C         0.109742         0.001229        -0.093731
 C        -1.049112        -0.083040         0.037491
 C        -2.517749        -0.312958         0.212676
 O        -3.217169         0.912502         0.682948
 C        -3.269553        -0.896434        -0.921630
 O        -4.532258        -1.431281        -0.804098
 C        -3.422298        -2.340548        -0.812123
 C        -3.336162        -3.145392        -2.090209
 H         2.132199         0.524679         0.543956
 H         1.919225        -0.642269        -0.967721
 H         1.513686         1.070137        -1.024885
 H        -2.626065        -0.774772         1.237312
 H        -3.431710         1.369829        -0.170937
 H        -2.904969        -0.441017        -1.857195
 H        -3.215809        -2.928188         0.192717
 H        -4.081275        -3.926869        -1.950418
 H        -3.616636        -2.616858        -3.012396
 H        -2.432806        -3.729617        -2.165865
