19
Iteration:  3380
 C         1.448894         0.095814        -0.460264
 C         0.073351         0.108125        -0.036257
 C        -1.086618        -0.114147         0.193494
 C        -2.505325        -0.439479         0.453199
 O        -3.253755         0.808283         0.919441
 C        -3.091745        -0.980904        -0.821933
 O        -4.388312        -1.488316        -0.641401
 C        -3.376690        -2.331626        -1.165740
 C        -3.550475        -2.735661        -2.616408
 H         1.465414         0.112584        -1.559944
 H         2.073087         0.903163        -0.008011
 H         1.772360        -1.043197        -0.134595
 H        -2.660891        -1.194779         1.194346
 H        -2.558738         1.274495         1.420855
 H        -3.095064        -0.341312        -1.709688
 H        -3.225175        -3.143223        -0.418030
 H        -4.113635        -3.660706        -2.769841
 H        -3.852772        -2.109695        -3.370509
 H        -2.576727        -3.022642        -2.911667
