19
Iteration:  2191
 C         1.486495         0.311379        -0.092122
 C         0.084778         0.047519        -0.233215
 C        -1.060374        -0.176791         0.093006
 C        -2.509891        -0.280145         0.347070
 O        -3.084311         0.993036         0.535461
 C        -3.191985        -0.885864        -0.981893
 O        -4.453468        -1.595804        -0.442524
 C        -3.356951        -2.408492        -1.047947
 C        -3.669337        -3.170401        -2.416699
 H         1.563632         1.246059         0.310195
 H         2.037723        -0.406996         0.565324
 H         2.112853         0.304678        -1.007993
 H        -2.629978        -0.947592         1.225457
 H        -2.464681         1.696121         0.406237
 H        -3.450766        -0.045900        -1.641925
 H        -2.782632        -3.040216        -0.239994
 H        -4.136833        -4.170828        -2.301471
 H        -4.354574        -2.697485        -3.094043
 H        -2.789171        -3.424441        -3.005722
