19
Iteration:  1094
 C         1.429249        -0.206332        -0.424347
 C        -0.054963        -0.125689         0.017867
 C        -1.248635        -0.010379         0.133989
 C        -2.624686        -0.055941         0.262726
 O        -3.380830         1.178035         0.268867
 C        -3.167003        -0.854893        -0.861350
 O        -4.435212        -1.504542        -0.640415
 C        -3.228446        -2.300509        -0.787056
 C        -3.007641        -3.213989        -2.117974
 H         1.858604         0.437883         0.261959
 H         1.814212        -1.273673        -0.359125
 H         1.508369         0.273154        -1.365502
 H        -2.952820        -0.569742         1.177734
 H        -3.948179         1.327183         1.125025
 H        -2.927863        -0.460831        -1.877367
 H        -2.814383        -2.791011         0.074834
 H        -3.601860        -4.060846        -1.939902
 H        -3.118169        -2.694221        -3.036665
 H        -2.050644        -3.617634        -2.093236
