19
Iteration:  4849charge 0 multiplicity 1
 C         1.388962         0.376124        -0.524340
 C         0.057550        -0.166235        -0.137493
 C        -0.989848        -0.560913         0.434325
 C        -2.485148        -0.722863         0.587028
 O        -3.079387         0.529864         1.199459
 C        -3.186891        -0.835061        -0.766219
 O        -4.492066        -1.252580        -0.828283
 C        -3.425619        -2.210546        -1.290763
 C        -3.473373        -2.458032        -2.790064
 H         1.965152        -0.130329         0.266577
 H         1.726322         0.301293        -1.576446
 H         1.505553         1.435902        -0.244993
 H        -2.956197        -1.569640         1.254783
 H        -2.745331         1.302161         0.680967
 H        -3.025294        -0.058267        -1.439003
 H        -3.501634        -3.042502        -0.660477
 H        -4.051422        -3.372188        -3.057803
 H        -4.036898        -1.720826        -3.472785
 H        -2.466330        -2.552690        -3.095691
