19
Iteration:  1239charge 0 multiplicity 1
 C         1.480146         0.071022        -0.218673
 C         0.033202         0.000316         0.026233
 C        -1.157128        -0.049755         0.017638
 C        -2.658348        -0.101179         0.307585
 O        -3.130853         1.188221         0.316960
 C        -3.246762        -0.935867        -0.861870
 O        -4.435644        -1.669637        -0.503183
 C        -3.319197        -2.445801        -0.910333
 C        -3.335555        -3.204203        -2.250052
 H         1.923618         0.784580        -0.978959
 H         1.986050         0.352639         0.820798
 H         1.898886        -0.886888        -0.542747
 H        -2.751523        -0.592130         1.328717
 H        -3.104443         1.577691        -0.655016
 H        -3.442313        -0.271618        -1.755046
 H        -2.787508        -2.984629        -0.056855
 H        -4.043423        -4.025314        -2.159762
 H        -3.864001        -2.582504        -2.938990
 H        -2.416267        -3.561227        -2.685685
