19
Iteration:  4038charge 0 multiplicity 1
 C         1.495953         0.265670        -0.209614
 C         0.066563        -0.190591        -0.072692
 C        -1.089442        -0.275662         0.314675
 C        -2.496964        -0.371199         0.365467
 O        -2.980865         0.797950         0.766361
 C        -3.301479        -0.844398        -0.812204
 O        -4.439942        -1.782023        -0.440348
 C        -3.316104        -2.265906        -1.286876
 C        -3.680457        -2.507008        -2.837079
 H         1.966665        -0.151103        -1.132531
 H         1.470327         1.336542        -0.191070
 H         2.253617         0.058225         0.528161
 H        -2.761696        -1.195373         1.146604
 H        -2.708229         1.226540         1.568384
 H        -3.467184        -0.184702        -1.605357
 H        -2.947440        -3.117999        -0.821576
 H        -4.587325        -3.110007        -2.821273
 H        -3.877955        -1.643314        -3.429448
 H        -2.844764        -3.105859        -3.264597
