19
Iteration:  1189charge 0 multiplicity 1
 C         1.403744        -0.044167        -0.190365
 C         0.049724        -0.112398        -0.136594
 C        -1.172817        -0.057837         0.081519
 C        -2.639982        -0.146735         0.199337
 O        -3.184743         1.190108         0.256425
 C        -3.363151        -0.863754        -0.882355
 O        -4.474667        -1.667510        -0.570312
 C        -3.204531        -2.300961        -0.849671
 C        -3.212885        -3.143866        -2.103267
 H         1.616422         1.019066        -0.481982
 H         1.981433        -0.279619         0.732784
 H         1.891878        -0.591626        -1.062841
 H        -2.794549        -0.664521         1.179642
 H        -3.401149         1.470238         1.111442
 H        -3.311719        -0.328496        -1.826543
 H        -2.703097        -2.818685        -0.006112
 H        -3.422686        -4.220207        -1.899897
 H        -3.641062        -2.620881        -3.012355
 H        -2.101153        -3.167756        -2.427458
