19
Iteration:  4018
 C         1.492699         0.244841        -0.302076
 C         0.142993        -0.154094         0.004729
 C        -1.013937        -0.387217         0.252586
 C        -2.513699        -0.494583         0.449699
 O        -3.112259         0.911094         0.764725
 C        -3.341277        -0.904282        -0.788609
 O        -4.437655        -1.761014        -0.501501
 C        -3.370066        -2.224701        -1.327331
 C        -3.614336        -2.524770        -2.756372
 H         1.791704         0.083139        -1.312200
 H         1.643538         1.354478        -0.135909
 H         2.383100        -0.227812         0.435199
 H        -2.845503        -1.129781         1.257000
 H        -2.572058         1.380574         1.450816
 H        -3.499688        -0.018436        -1.324615
 H        -2.685251        -2.771750        -0.742410
 H        -4.567941        -3.106444        -3.028015
 H        -3.667159        -1.554310        -3.229889
 H        -2.678301        -2.979068        -3.241428
