19
Iteration:  2541charge 0 multiplicity 1
 C         1.366052        -0.031419        -0.428441
 C        -0.026991        -0.085362        -0.129780
 C        -1.164310        -0.082183         0.324044
 C        -2.624101        -0.195902         0.350837
 O        -3.237774         0.982177         0.665370
 C        -3.171762        -0.757207        -0.860010
 O        -4.359695        -1.674475        -0.576668
 C        -3.167788        -2.303651        -1.050311
 C        -3.357333        -2.941321        -2.430840
 H         1.877053        -0.768425         0.150061
 H         1.676203        -0.219693        -1.512052
 H         1.629177         1.081213        -0.219119
 H        -2.871725        -0.976718         1.066157
 H        -2.465570         1.493829         1.011322
 H        -3.604467        -0.116097        -1.636975
 H        -2.709777        -2.976660        -0.281896
 H        -3.998724        -3.874255        -2.361290
 H        -3.931314        -2.478121        -3.296810
 H        -2.394247        -3.205628        -2.914707
