19
Iteration:  3946
 C         1.456723        -0.003142        -0.404714
 C         0.025281        -0.017238        -0.201215
 C        -1.062782        -0.339603         0.184436
 C        -2.529393        -0.403392         0.480448
 O        -3.241994         0.867182         1.062193
 C        -3.333720        -0.820353        -0.799190
 O        -4.505122        -1.607078        -0.594496
 C        -3.266339        -2.224001        -1.230450
 C        -3.338655        -2.636132        -2.730054
 H         1.707140         0.443442        -1.491871
 H         1.881503         0.705281         0.356212
 H         2.058698        -0.865052        -0.293421
 H        -2.547125        -1.314207         1.221865
 H        -2.453349         1.420201         1.275637
 H        -3.394415         0.092329        -1.509854
 H        -2.776394        -2.971135        -0.494151
 H        -3.512156        -3.694314        -2.950120
 H        -4.157004        -2.176283        -3.302380
 H        -2.384875        -2.367404        -3.148246
