19
Iteration:   111charge 0 multiplicity 1
 C         1.586562         0.300657        -0.129293
 C         0.152291        -0.007072         0.121365
 C        -1.126882        -0.080759         0.064178
 C        -2.664607        -0.064449         0.129312
 O        -3.285914         1.160887         0.096337
 C        -3.115785        -1.022657        -0.934466
 O        -4.454165        -1.409934        -0.903515
 C        -3.482918        -2.467381        -0.701219
 C        -3.369994        -3.601408        -1.757896
 H         1.758067         1.246583         0.380210
 H         2.218642        -0.536105         0.149647
 H         1.940268         0.584734        -1.196727
 H        -2.982192        -0.488075         1.034560
 H        -2.935953         1.778076        -0.620621
 H        -2.737516        -0.954104        -1.979161
 H        -3.478016        -2.630129         0.290606
 H        -4.098249        -4.362174        -1.635551
 H        -3.336920        -3.212196        -2.783533
 H        -2.366133        -3.996569        -1.526595
