19
Iteration:  1687charge 0 multiplicity 1
 C         1.450620         0.086439        -0.402400
 C         0.098100        -0.189892         0.048801
 C        -1.081401        -0.060288         0.175225
 C        -2.525590        -0.146944         0.317865
 O        -3.244044         1.072435         0.259827
 C        -3.309222        -0.956041        -0.747611
 O        -4.461859        -1.667507        -0.436297
 C        -3.353842        -2.367722        -0.943654
 C        -3.327530        -2.935852        -2.351937
 H         1.746375         1.118292        -0.473728
 H         2.316058        -0.399163         0.197575
 H         1.762692        -0.301927        -1.371688
 H        -2.764341        -0.749535         1.174435
 H        -3.256776         1.500376         1.109086
 H        -3.568186        -0.344595        -1.647904
 H        -2.694891        -2.797703        -0.264684
 H        -3.697682        -3.990691        -2.466187
 H        -3.798048        -2.327759        -3.198152
 H        -2.277633        -3.226613        -2.667443
