19
Iteration:  2035
 C         1.445354         0.234296        -0.459164
 C         0.071451        -0.069347        -0.146552
 C        -1.095182        -0.135380         0.202781
 C        -2.598397        -0.311306         0.375456
 O        -3.177191         0.960245         0.655246
 C        -3.180172        -0.910982        -0.882616
 O        -4.492677        -1.370226        -0.779087
 C        -3.507417        -2.332825        -0.980995
 C        -3.265246        -3.233734        -2.177940
 H         2.050907        -0.399948         0.217214
 H         1.611313        -0.188118        -1.469971
 H         1.602692         1.302291        -0.349908
 H        -2.825677        -0.852007         1.246095
 H        -2.373349         1.464938         0.972631
 H        -3.059207        -0.353507        -1.827940
 H        -3.456642        -2.965292        -0.021099
 H        -3.902940        -4.113841        -2.174683
 H        -3.283716        -2.606280        -3.118882
 H        -2.205647        -3.493715        -1.947608
