19
Iteration:  3780
 C         1.295800         0.028232        -0.666399
 C         0.029339        -0.189702        -0.039039
 C        -1.118947        -0.253867         0.348435
 C        -2.539946        -0.395045         0.578086
 O        -3.176830         0.815208         0.912852
 C        -3.332186        -0.831092        -0.635817
 O        -4.446454        -1.595397        -0.722657
 C        -3.258488        -2.198675        -1.248238
 C        -3.218859        -2.586287        -2.611877
 H         1.601064         1.047865        -0.227288
 H         1.969143        -0.791790        -0.351084
 H         1.222246         0.211121        -1.713740
 H        -2.675379        -1.078400         1.470279
 H        -2.541389         1.471503         0.576261
 H        -3.214101        -0.072657        -1.407482
 H        -3.002486        -3.003737        -0.553223
 H        -3.990541        -3.348433        -2.688650
 H        -3.574979        -1.824825        -3.202896
 H        -2.212278        -2.905830        -2.908563
