19
Iteration:  3216
 C         1.398191         0.042348        -0.402581
 C         0.040213        -0.279163        -0.150824
 C        -1.144496        -0.215238         0.151725
 C        -2.615727        -0.276912         0.471300
 O        -3.203698         0.923830         0.642754
 C        -3.320937        -0.910053        -0.697418
 O        -4.416489        -1.742801        -0.487626
 C        -3.186236        -2.284451        -1.142156
 C        -3.315310        -2.474249        -2.563367
 H         1.802916         1.003163        -0.043144
 H         2.075114        -0.761630         0.002593
 H         1.496395        -0.022907        -1.413855
 H        -2.901372        -1.036441         1.352135
 H        -2.718969         1.615143         1.165353
 H        -3.388560        -0.277442        -1.568765
 H        -2.613841        -3.037499        -0.603315
 H        -3.733549        -3.480827        -2.706903
 H        -4.075202        -1.784920        -2.865797
 H        -2.398733        -2.238427        -3.071324
