19
Iteration:  2530
 C         1.381689        -0.017842        -0.454290
 C        -0.066065        -0.148920        -0.177661
 C        -1.143660        -0.143748         0.339186
 C        -2.616172        -0.260614         0.432963
 O        -3.306474         1.083687         0.689127
 C        -3.227629        -0.873078        -0.875008
 O        -4.329901        -1.602219        -0.545326
 C        -3.192975        -2.278918        -1.131269
 C        -3.309759        -2.985653        -2.461197
 H         2.036877        -0.670021         0.090922
 H         1.617533        -0.003158        -1.564704
 H         1.762213         0.991938        -0.028539
 H        -2.950314        -0.825336         1.270881
 H        -2.557585         1.721428         0.783727
 H        -3.081890        -0.130436        -1.673917
 H        -2.587078        -2.777025        -0.357676
 H        -3.820738        -3.948887        -2.191805
 H        -3.923642        -2.234347        -3.043470
 H        -2.333538        -3.208377        -2.930649
