19
Iteration:  2360charge 0 multiplicity 1
 C         1.468788        -0.048429        -0.527269
 C         0.131979         0.121737         0.007840
 C        -1.112530         0.015410         0.288424
 C        -2.615224        -0.283803         0.382398
 O        -3.278121         0.907583         0.703494
 C        -3.316967        -0.793919        -0.866557
 O        -4.471390        -1.610874        -0.687753
 C        -3.255574        -2.267620        -1.072141
 C        -3.280923        -3.086512        -2.338475
 H         1.409994        -0.174465        -1.655689
 H         2.018943         0.846267        -0.399751
 H         2.038520        -0.841270        -0.144106
 H        -2.900498        -0.833324         1.313999
 H        -2.544911         1.555944         0.683524
 H        -3.371982        -0.147189        -1.741967
 H        -2.871729        -2.881656        -0.126991
 H        -3.885649        -3.944096        -2.201627
 H        -3.895795        -2.577883        -3.088281
 H        -2.352350        -3.510775        -2.652647
