19
Iteration:  2819
 C         1.552566         0.220128        -0.385558
 C         0.112692         0.161876         0.126673
 C        -1.084185        -0.157315         0.099666
 C        -2.591045        -0.397782         0.237634
 O        -3.103892         0.734531         0.981527
 C        -3.197453        -0.834182        -0.985930
 O        -4.465740        -1.433441        -0.776184
 C        -3.457857        -2.315576        -1.094229
 C        -3.555832        -3.092215        -2.376266
 H         1.864220         0.889621        -1.318800
 H         2.123255         0.739545         0.378099
 H         1.917354        -0.749167        -0.494892
 H        -2.746135        -1.204877         1.108967
 H        -2.678764         1.598950         0.798848
 H        -3.045244        -0.224704        -1.937101
 H        -3.246207        -3.018897        -0.300978
 H        -4.361564        -3.932810        -2.466486
 H        -3.759910        -2.376670        -3.236605
 H        -2.409987        -3.441829        -2.548605
