19
Iteration:  4181
 C         1.538610         0.241133        -0.178711
 C         0.065330         0.012690        -0.181094
 C        -1.078962        -0.274098         0.158579
 C        -2.456671        -0.442406         0.406249
 O        -3.091475         0.630822         1.088403
 C        -3.156215        -0.804416        -0.932165
 O        -4.436190        -1.486098        -0.617244
 C        -3.498024        -2.257392        -1.259356
 C        -3.666321        -2.734189        -2.777526
 H         2.168057        -0.645601         0.308246
 H         1.836854         0.391076        -1.217896
 H         1.816036         1.173361         0.334522
 H        -2.540786        -1.425063         0.908886
 H        -2.440760         1.003920         1.704385
 H        -3.466907        -0.080649        -1.664219
 H        -2.950365        -2.976108        -0.643615
 H        -4.383680        -3.575718        -2.763362
 H        -3.999643        -1.952497        -3.435776
 H        -2.676883        -3.015044        -3.168340
