19
Iteration:   633charge 0 multiplicity 1
 C         1.438778         0.047777        -0.241002
 C        -0.044408        -0.098118        -0.029586
 C        -1.246839        -0.049523         0.197887
 C        -2.674244        -0.107539         0.310206
 O        -3.323528         1.123060         0.040455
 C        -3.059777        -0.933417        -0.881203
 O        -4.392733        -1.478327        -0.822255
 C        -3.292143        -2.332578        -0.744970
 C        -3.168122        -3.346759        -1.909212
 H         1.579732         1.126174        -0.454614
 H         2.157316        -0.398634         0.562420
 H         1.771501        -0.426480        -1.192854
 H        -3.092323        -0.491398         1.319784
 H        -3.028279         1.900585         0.582823
 H        -2.802219        -0.573361        -1.905949
 H        -3.090916        -2.763745         0.323676
 H        -3.999926        -4.078768        -1.889133
 H        -3.329105        -2.795442        -2.818468
 H        -2.258934        -3.847447        -1.746876
