19
Iteration:  1315charge 0 multiplicity 1
 C         1.538136         0.243059        -0.175676
 C         0.103159        -0.086861         0.083895
 C        -1.079929        -0.034211        -0.019412
 C        -2.484110        -0.175744         0.206054
 O        -3.161660         1.066089         0.336612
 C        -3.177410        -0.918571        -0.880091
 O        -4.503136        -1.575839        -0.552836
 C        -3.370344        -2.390923        -0.882864
 C        -3.541489        -3.245400        -2.182208
 H         1.709174         0.286204        -1.287965
 H         1.872682         1.298897         0.189881
 H         2.215774        -0.533055         0.144220
 H        -2.539740        -0.856457         1.079901
 H        -3.968400         1.058262        -0.135989
 H        -3.150625        -0.497776        -1.913254
 H        -2.889099        -2.956457        -0.041868
 H        -4.219884        -4.059542        -2.286333
 H        -3.792111        -2.556774        -2.945626
 H        -2.562149        -3.599977        -2.417033
