19
Iteration:  3198charge 0 multiplicity 1
 C         1.470474        -0.064272        -0.465010
 C         0.061205        -0.125659        -0.098778
 C        -1.128315        -0.239041         0.234235
 C        -2.586024        -0.340208         0.500438
 O        -3.277896         1.046163         0.640720
 C        -3.256305        -0.881753        -0.693582
 O        -4.413633        -1.815838        -0.485653
 C        -3.251252        -2.291383        -1.105719
 C        -3.382533        -2.555387        -2.686012
 H         1.888423         0.905909         0.174182
 H         2.108708        -0.824062        -0.031362
 H         1.693519         0.372077        -1.500916
 H        -2.635381        -0.891995         1.381928
 H        -2.908229         1.658293         1.320725
 H        -3.519151        -0.070624        -1.372420
 H        -2.495575        -2.980925        -0.620357
 H        -3.856253        -3.602681        -2.977561
 H        -4.054216        -1.773647        -3.119721
 H        -2.397813        -2.405211        -3.231654
