19
Iteration:  3098
 C         1.462359        -0.040953        -0.279455
 C         0.057240        -0.174367        -0.267567
 C        -1.096517        -0.001231         0.102433
 C        -2.543551        -0.284482         0.329152
 O        -3.282045         0.881951         0.815219
 C        -3.384490        -0.824795        -0.747603
 O        -4.370253        -1.722269        -0.420366
 C        -3.209700        -2.208434        -1.233090
 C        -3.400347        -2.735755        -2.610384
 H         1.771861        -0.334514         0.835902
 H         2.081577        -0.732921        -0.917931
 H         1.709885         1.034663        -0.417241
 H        -2.579125        -0.911046         1.277894
 H        -2.528390         1.390086         1.139111
 H        -3.551570        -0.081139        -1.483758
 H        -2.642775        -2.917615        -0.610133
 H        -3.901356        -3.808038        -2.505475
 H        -4.183240        -2.141362        -3.194196
 H        -2.472053        -2.702724        -3.235432
