19
Iteration:  1342charge 0 multiplicity 1
 C         1.630321         0.282052        -0.210519
 C         0.154816         0.007063        -0.006831
 C        -1.076676        -0.094995         0.016307
 C        -2.527513        -0.187361         0.201405
 O        -3.229045         1.021349         0.484433
 C        -3.160166        -0.939385        -0.949655
 O        -4.543647        -1.490429        -0.657208
 C        -3.421945        -2.412863        -0.841607
 C        -3.529359        -3.314225        -2.134321
 H         2.157289         0.096980        -1.209211
 H         1.854608         1.305539        -0.012348
 H         2.159723        -0.345984         0.589886
 H        -2.704828        -1.026499         0.945629
 H        -3.091404         1.655657        -0.183154
 H        -3.193242        -0.662400        -1.990557
 H        -3.135832        -2.988020         0.047151
 H        -4.200053        -4.231641        -2.143274
 H        -3.905523        -2.564549        -2.928925
 H        -2.523175        -3.692873        -2.526215
