19
Iteration:   138charge 0 multiplicity 1
 C         1.416258         0.253141        -0.035706
 C        -0.019646         0.124830        -0.255246
 C        -1.183636         0.054723         0.180484
 C        -2.638476        -0.128841         0.248517
 O        -3.059958         1.181892         0.130368
 C        -2.972592        -1.102288        -0.872835
 O        -4.444106        -1.474058        -0.978382
 C        -3.476115        -2.468317        -0.740288
 C        -3.388491        -3.554297        -1.777577
 H         1.667975         1.290541         0.232273
 H         1.742593        -0.451268         0.774098
 H         2.005069         0.106451        -0.908969
 H        -2.990715        -0.513931         1.281636
 H        -2.930926         1.506643        -0.798518
 H        -2.580511        -0.919253        -1.914834
 H        -3.478771        -2.770135         0.431248
 H        -4.233077        -4.179008        -1.363243
 H        -3.638459        -3.280593        -2.830043
 H        -2.451419        -4.128970        -1.610747
