19
Iteration:   469
 C         1.448186        -0.175967        -0.084397
 C        -0.022501        -0.092179        -0.128615
 C        -1.240438         0.047598         0.050756
 C        -2.763403         0.010042         0.243803
 O        -3.249472         1.436442         0.067156
 C        -3.343668        -0.964689        -0.823466
 O        -4.451126        -1.785613        -0.600266
 C        -3.158522        -2.417802        -0.778856
 C        -3.035951        -3.208295        -1.999058
 H         1.713375        -0.378559         0.951183
 H         1.975383        -0.767598        -0.928426
 H         1.876618         0.809579        -0.261614
 H        -3.064537        -0.344023         1.254279
 H        -3.112625         1.732199        -0.816550
 H        -3.313725        -0.594879        -1.863974
 H        -2.757425        -2.677337         0.257921
 H        -3.276070        -4.304872        -1.995152
 H        -3.590202        -2.831126        -2.856014
 H        -1.963878        -3.313457        -2.263593
