19
Iteration:  3575charge 0 multiplicity 1
 C         1.577803         0.264265        -0.254359
 C         0.127148        -0.048557         0.006319
 C        -1.062315        -0.195484         0.072801
 C        -2.463958        -0.425337         0.351364
 O        -3.186777         0.665938         0.831135
 C        -3.146709        -0.825634        -0.856814
 O        -4.402542        -1.566229        -0.537401
 C        -3.384520        -2.273028        -1.219516
 C        -3.759995        -2.776316        -2.587690
 H         2.291596        -0.525416         0.258582
 H         1.844885         0.511982        -1.298635
 H         1.809450         1.216748         0.362644
 H        -2.682664        -1.112331         1.141841
 H        -2.856987         1.583879         0.737530
 H        -3.075748        -0.113411        -1.670828
 H        -2.774865        -3.023215        -0.667238
 H        -4.620940        -3.481110        -2.430411
 H        -4.212944        -2.004538        -3.182450
 H        -3.045974        -3.185201        -3.362243
