19
Iteration:   847
 C         1.636139         0.332373         0.084033
 C         0.181915         0.003479        -0.020319
 C        -1.054845        -0.073032         0.056771
 C        -2.540516        -0.140226         0.094638
 O        -3.375903         1.025417         0.091513
 C        -3.114411        -1.042755        -0.934433
 O        -4.407419        -1.541588        -0.651655
 C        -3.368856        -2.428384        -0.810666
 C        -3.638343        -3.331558        -2.054086
 H         2.251376        -0.421835        -0.543190
 H         1.733672         1.306561        -0.351154
 H         1.910930         0.475342         1.185711
 H        -2.776388        -0.715513         1.080822
 H        -2.765283         1.738186         0.307845
 H        -3.092464        -0.566491        -1.909991
 H        -2.920973        -2.842957         0.077547
 H        -4.427167        -4.030310        -1.980427
 H        -3.999503        -2.632043        -2.811328
 H        -2.704519        -3.774263        -2.383313
