19
Iteration:   995charge 0 multiplicity 1
 C         1.485109        -0.021489        -0.355598
 C         0.033018        -0.030869         0.011377
 C        -1.199685        -0.059144         0.233428
 C        -2.690317        -0.109608         0.275016
 O        -3.190376         1.171297         0.254017
 C        -3.236160        -0.888629        -0.911199
 O        -4.514152        -1.536704        -0.817950
 C        -3.386526        -2.386503        -0.782828
 C        -3.038908        -3.270462        -1.996236
 H         1.991362        -0.381497         0.469046
 H         1.671909        -0.448001        -1.415190
 H         1.739353         1.018868        -0.465929
 H        -2.972587        -0.758949         1.199210
 H        -3.826930         1.418879         1.029079
 H        -2.928067        -0.510404        -1.911849
 H        -2.893001        -2.795144         0.106960
 H        -3.871461        -4.051921        -1.893991
 H        -3.356896        -2.784572        -2.964161
 H        -1.991403        -3.531780        -2.111884
