19
Iteration:  2560charge 0 multiplicity 1
 C         1.437794        -0.043846        -0.385156
 C         0.030896         0.036717        -0.015273
 C        -1.142506        -0.039010         0.127338
 C        -2.567595        -0.285966         0.389176
 O        -3.237041         1.031864         0.671444
 C        -3.320729        -0.870233        -0.900458
 O        -4.421439        -1.701710        -0.562207
 C        -3.206467        -2.312614        -1.129106
 C        -3.355373        -2.926405        -2.394610
 H         1.983794        -0.672177         0.254335
 H         1.555255        -0.501039        -1.394442
 H         1.936206         0.944549        -0.534705
 H        -2.807658        -0.955761         1.300332
 H        -2.714365         1.250522         1.473136
 H        -3.196132        -0.171843        -1.808544
 H        -2.499314        -2.658330        -0.272406
 H        -4.133687        -3.699781        -2.313183
 H        -3.817118        -2.257762        -3.141961
 H        -2.397099        -3.147299        -2.887790
