19
Iteration:   681
 C         1.472195         0.130114        -0.220533
 C         0.100414         0.218656         0.180943
 C        -1.106260        -0.102415         0.140347
 C        -2.652074        -0.136583         0.271745
 O        -3.152065         1.206846         0.173247
 C        -3.215337        -0.985228        -0.944644
 O        -4.515713        -1.544464        -0.897531
 C        -3.425661        -2.425873        -0.837792
 C        -3.300033        -3.511847        -1.925935
 H         1.635613         1.031387        -0.903394
 H         2.051662         0.273034         0.689803
 H         1.806383        -0.824915        -0.609124
 H        -2.833752        -0.633534         1.259767
 H        -2.479411         1.853174         0.271472
 H        -3.215320        -0.607289        -1.972405
 H        -3.170305        -2.785267         0.118296
 H        -3.921866        -4.361394        -1.903801
 H        -3.570257        -2.929477        -2.808889
 H        -2.212172        -3.727568        -1.821224
