19
Iteration:  2477charge 0 multiplicity 1
 C         1.343693         0.015924        -0.543159
 C         0.043728        -0.062594        -0.044381
 C        -1.185522        -0.175479         0.239222
 C        -2.633686        -0.201865         0.407641
 O        -3.063104         1.025568         0.714589
 C        -3.309339        -0.933632        -0.804479
 O        -4.556541        -1.650336        -0.654363
 C        -3.350002        -2.351694        -0.966620
 C        -3.055406        -2.832890        -2.420004
 H         1.761787        -1.094970        -0.647861
 H         1.374354         0.495949        -1.566042
 H         1.998109         0.528637         0.277949
 H        -2.845696        -0.884970         1.252366
 H        -3.341823         1.585803        -0.080807
 H        -3.319176        -0.306322        -1.721212
 H        -2.984745        -2.776382        -0.084600
 H        -3.398326        -3.904848        -2.659993
 H        -3.712651        -2.083514        -3.014186
 H        -1.969628        -2.941829        -2.403782
