19
Iteration:  2803charge 0 multiplicity 1
 C         1.472621         0.248311        -0.290587
 C         0.139132         0.126020         0.042254
 C        -1.041574        -0.110241         0.103301
 C        -2.436588        -0.397650         0.352672
 O        -3.098502         0.773498         0.897339
 C        -3.199892        -0.928839        -0.965060
 O        -4.602576        -1.453040        -0.781566
 C        -3.458431        -2.359639        -1.082602
 C        -3.505618        -3.015439        -2.422691
 H         1.515640         0.957179        -1.064972
 H         2.255934         0.590969         0.432907
 H         1.770496        -0.774900        -0.797944
 H        -2.598386        -1.223193         0.998508
 H        -2.559674         1.558558         0.653489
 H        -3.166406        -0.331738        -1.839897
 H        -3.006378        -3.027316        -0.234927
 H        -4.314451        -3.703270        -2.386920
 H        -3.765069        -2.240865        -3.128718
 H        -2.661325        -3.566627        -2.601185
