19
Iteration:   784charge 0 multiplicity 1
 C         1.576945         0.369204         0.044419
 C         0.101625         0.281023         0.122511
 C        -1.047079        -0.150919         0.040951
 C        -2.551529        -0.242610         0.025117
 O        -3.011326         1.184287         0.229029
 C        -3.241262        -1.078503        -0.966033
 O        -4.616297        -1.521860        -0.662238
 C        -3.440066        -2.564103        -0.857117
 C        -3.523621        -3.425371        -2.075694
 H         2.181088        -0.016713        -0.816313
 H         1.903883         1.362772         0.361283
 H         2.092699        -0.389125         0.685556
 H        -2.649909        -0.554404         1.069875
 H        -3.264441         1.623020        -0.607431
 H        -3.155456        -0.797231        -2.004639
 H        -3.009726        -2.954924         0.107764
 H        -4.400582        -4.210419        -1.819734
 H        -3.707951        -2.821435        -3.036592
 H        -2.557512        -3.976705        -2.307564
