19
Iteration:   853
 C         1.618006         0.310372         0.041375
 C         0.165449         0.001175         0.017028
 C        -1.046899        -0.062393         0.066251
 C        -2.525640        -0.135342         0.064554
 O        -3.340188         0.993304         0.084538
 C        -3.098875        -0.978117        -0.965701
 O        -4.435631        -1.518079        -0.608072
 C        -3.359511        -2.475005        -0.808448
 C        -3.603814        -3.320900        -2.056478
 H         2.238800        -0.456047        -0.297393
 H         1.516581         1.359129        -0.404867
 H         1.795706         0.402175         1.074150
 H        -2.754158        -0.733783         0.912541
 H        -3.090289         1.888970         0.530490
 H        -3.127913        -0.649312        -2.030733
 H        -3.077350        -2.978952         0.163826
 H        -4.481817        -4.068843        -1.926162
 H        -3.879716        -2.605232        -2.856230
 H        -2.616862        -3.721902        -2.390733
