19
Iteration:  4546
 C         1.448410         0.068218        -0.330416
 C         0.011090        -0.211066        -0.037143
 C        -1.207299        -0.305991         0.070094
 C        -2.531751        -0.485552         0.598681
 O        -3.039804         0.849706         0.917342
 C        -3.407288        -0.827806        -0.650208
 O        -4.333595        -1.973964        -0.468411
 C        -3.206259        -2.072746        -1.407483
 C        -3.530124        -2.204025        -2.905554
 H         1.755692         0.544275        -1.174515
 H         1.855659         0.524479         0.548251
 H         1.887992        -1.012872        -0.383334
 H        -2.721383        -1.258646         1.447436
 H        -2.336108         1.502678         0.826221
 H        -4.010925        -0.045138        -0.987070
 H        -2.445121        -2.697356        -1.007121
 H        -3.798998        -3.272141        -3.048235
 H        -4.495828        -1.691188        -3.144700
 H        -2.740506        -2.044848        -3.576649
