19
Iteration:  4173charge 0 multiplicity 1
 C         1.526816         0.231060        -0.157715
 C         0.093999        -0.004871        -0.202468
 C        -1.037626        -0.183989         0.187446
 C        -2.488572        -0.450736         0.314795
 O        -3.063567         0.595638         1.081372
 C        -3.243953        -0.803438        -0.899035
 O        -4.421652        -1.499139        -0.636504
 C        -3.483099        -2.298541        -1.274657
 C        -3.666299        -2.669716        -2.723608
 H         1.923671        -0.665982         0.268848
 H         1.900402         0.452783        -1.214161
 H         1.802918         1.159352         0.525547
 H        -2.654221        -1.400312         0.991894
 H        -2.337718         0.960754         1.618160
 H        -3.134576         0.015545        -1.690198
 H        -3.013556        -3.015933        -0.607704
 H        -4.232385        -3.672415        -2.695499
 H        -4.303528        -2.021741        -3.410203
 H        -2.708965        -3.083649        -3.111174
