19
Iteration:  1877
 C         1.470254        -0.175035        -0.384389
 C         0.052295        -0.010060        -0.042455
 C        -1.206454         0.135788         0.028251
 C        -2.586672        -0.137040         0.351760
 O        -3.298264         1.150083         0.531922
 C        -3.323418        -0.895265        -0.769262
 O        -4.457658        -1.772352        -0.463462
 C        -3.261210        -2.362770        -1.006562
 C        -3.203682        -3.027324        -2.360918
 H         1.652268        -0.909072        -1.287807
 H         1.968004         0.747626        -0.687483
 H         2.097759        -0.645915         0.400328
 H        -2.690769        -0.669514         1.296353
 H        -2.601915         1.858758         0.373334
 H        -3.579992        -0.306805        -1.610557
 H        -2.652132        -2.856739        -0.189708
 H        -3.582390        -4.067607        -2.640302
 H        -3.731226        -2.330278        -3.020052
 H        -2.198643        -3.082931        -2.795763
