19
Iteration:  2977charge 0 multiplicity 1
 C         1.286766         0.209544        -0.384137
 C         0.015846        -0.206271        -0.083144
 C        -1.142373        -0.255380         0.248381
 C        -2.526951        -0.363169         0.451312
 O        -3.108644         0.946548         0.785135
 C        -3.126121        -0.846433        -0.830851
 O        -4.449343        -1.584779        -0.694672
 C        -3.212205        -2.313691        -1.135881
 C        -3.516069        -2.848192        -2.485514
 H         1.829666        -0.552212        -0.765075
 H         1.257692         1.054258        -1.148543
 H         1.815893         0.793716         0.481302
 H        -2.719380        -1.228263         1.242011
 H        -2.287009         1.487576         0.843686
 H        -3.128924        -0.223044        -1.712612
 H        -2.543990        -2.833230        -0.359412
 H        -4.436758        -3.513629        -2.530817
 H        -3.687394        -1.884057        -3.127756
 H        -2.627701        -3.300335        -3.001660
