19
Iteration:  3034
 C         1.503450         0.078444        -0.359709
 C         0.077448         0.025614        -0.033084
 C        -1.135341        -0.151293         0.062241
 C        -2.571540        -0.327644         0.394897
 O        -3.050058         0.944010         0.724510
 C        -3.389763        -0.895198        -0.751305
 O        -4.517152        -1.739152        -0.551215
 C        -3.401433        -2.266842        -1.163469
 C        -3.352179        -2.730749        -2.549787
 H         1.968957        -0.757002        -0.010165
 H         1.614231        -0.001734        -1.426878
 H         1.997240         0.909101         0.279385
 H        -2.584922        -1.241334         1.139856
 H        -2.519564         1.102255         1.526510
 H        -3.428923        -0.168044        -1.553301
 H        -2.931394        -3.068240        -0.457562
 H        -3.596784        -3.843045        -2.590898
 H        -4.001857        -2.257594        -3.273889
 H        -2.323507        -2.624093        -2.877320
