19
Iteration:   444charge 0 multiplicity 1
 C         1.435023        -0.104909        -0.128599
 C         0.062050        -0.028797         0.187733
 C        -1.182496        -0.029920         0.018144
 C        -2.630342        -0.024128         0.087309
 O        -3.283859         1.258255        -0.018636
 C        -3.402330        -0.913521        -0.891059
 O        -4.516174        -1.761603        -0.439378
 C        -3.280680        -2.342772        -0.807639
 C        -2.963965        -3.185595        -2.023922
 H         1.846357        -0.783991         0.621859
 H         1.440960        -0.493033        -1.138403
 H         2.149501         0.774286        -0.239625
 H        -2.922318        -0.373863         1.101025
 H        -3.193240         1.824753        -0.830347
 H        -3.640547        -0.490572        -1.822669
 H        -2.709164        -2.462422         0.147393
 H        -3.372555        -4.153194        -2.055643
 H        -3.404137        -2.692309        -2.899718
 H        -1.959399        -3.417829        -2.142638
