19
Iteration:    82charge 0 multiplicity 1
 C         1.501883         0.247150        -0.123818
 C         0.147784         0.078337         0.152741
 C        -1.070142        -0.039786         0.139517
 C        -2.452948        -0.212724         0.060710
 O        -3.315369         1.085291         0.014015
 C        -3.190371        -1.026435        -1.039498
 O        -4.556061        -1.486858        -0.868198
 C        -3.458713        -2.335205        -0.680766
 C        -3.340692        -3.458026        -1.676402
 H         1.911621         0.868254         0.688855
 H         1.910503        -0.736130        -0.280517
 H         1.782783         0.789482        -1.016998
 H        -2.809845        -0.692021         1.033050
 H        -2.760319         1.768209        -0.471245
 H        -2.919924        -0.746220        -2.102463
 H        -3.284230        -2.398296         0.535488
 H        -4.086799        -4.287398        -1.726433
 H        -3.207024        -3.071181        -2.719551
 H        -2.354130        -3.983732        -1.563860
