19
Iteration:  1882
 C         1.436596        -0.176100        -0.434980
 C         0.037202        -0.012760         0.001000
 C        -1.142749         0.130065         0.048033
 C        -2.597311        -0.136020         0.293602
 O        -3.296916         1.151740         0.535728
 C        -3.349587        -0.869052        -0.757219
 O        -4.452483        -1.748071        -0.454013
 C        -3.241609        -2.391904        -1.016304
 C        -3.204532        -3.063287        -2.341916
 H         1.588364        -0.948491        -1.136463
 H         1.909831         0.816335        -0.594397
 H         2.120266        -0.522644         0.358511
 H        -2.775141        -0.786842         1.188105
 H        -2.640882         1.833015         0.527997
 H        -3.472250        -0.160162        -1.650523
 H        -2.649255        -3.022428        -0.271384
 H        -3.669802        -3.956807        -2.687787
 H        -3.625388        -2.327341        -3.075511
 H        -2.171338        -3.034564        -2.742130
