19
Iteration:  1666charge 0 multiplicity 1
 C         1.479147         0.107497        -0.364031
 C         0.109877        -0.104696         0.080958
 C        -1.164940        -0.169880         0.005933
 C        -2.539296        -0.217897         0.282826
 O        -3.224927         1.079195         0.378903
 C        -3.298499        -0.888934        -0.893636
 O        -4.495468        -1.574479        -0.407847
 C        -3.367371        -2.336873        -0.896917
 C        -3.253258        -3.030089        -2.320012
 H         1.841846         1.128957        -0.357828
 H         2.245110        -0.664351        -0.021702
 H         1.475658         0.003715        -1.453133
 H        -2.887229        -0.862276         1.082361
 H        -3.111044         1.293852         1.353769
 H        -3.302083        -0.421890        -1.910623
 H        -2.860620        -2.968201        -0.118311
 H        -3.669931        -4.060802        -2.459082
 H        -3.692023        -2.323849        -3.097713
 H        -2.215144        -3.387500        -2.571041
