19
Iteration:  3949charge 0 multiplicity 1
 C         1.461474         0.016533        -0.409373
 C         0.018906        -0.020865        -0.187564
 C        -1.082593        -0.334294         0.218761
 C        -2.499423        -0.404437         0.436998
 O        -3.225377         0.881644         1.060850
 C        -3.336164        -0.837715        -0.789956
 O        -4.503898        -1.619204        -0.591702
 C        -3.277375        -2.229786        -1.255470
 C        -3.349173        -2.638477        -2.702516
 H         1.731718         0.466996        -1.506575
 H         1.855422         0.739935         0.316087
 H         1.985136        -0.963819        -0.205582
 H        -2.576695        -1.290057         1.150624
 H        -2.432222         1.389313         1.295412
 H        -3.370132         0.000504        -1.528215
 H        -2.826762        -3.011190        -0.632159
 H        -3.521660        -3.659083        -2.974626
 H        -4.148055        -2.064882        -3.302218
 H        -2.373687        -2.310209        -3.110561
