19
Iteration:  4368charge 0 multiplicity 1
 C         1.492773         0.005630        -0.513001
 C         0.017960        -0.029914        -0.193077
 C        -1.113533        -0.277994         0.194914
 C        -2.559991        -0.450350         0.506304
 O        -3.194943         0.668743         1.271386
 C        -3.271892        -0.659742        -0.848727
 O        -4.518586        -1.636445        -0.712459
 C        -3.349559        -2.195098        -1.228984
 C        -3.331149        -2.532410        -2.697640
 H         1.919782         0.823424         0.078685
 H         1.873282        -0.968790        -0.075995
 H         1.706799         0.064167        -1.581924
 H        -2.614559        -1.458893         1.012863
 H        -2.428233         1.215295         1.561037
 H        -3.402973         0.169616        -1.665698
 H        -2.650919        -2.821704        -0.554779
 H        -3.784589        -3.497126        -3.063902
 H        -3.657772        -1.850900        -3.550273
 H        -2.279457        -2.408479        -2.997469
