19
Iteration:  2325charge 0 multiplicity 1
 C         1.506237         0.048202        -0.428170
 C         0.052333         0.053449        -0.020011
 C        -1.160155        -0.029141         0.117699
 C        -2.635420        -0.234385         0.375135
 O        -3.260837         1.008924         0.631388
 C        -3.124973        -0.962585        -0.822885
 O        -4.409302        -1.571476        -0.560730
 C        -3.423980        -2.462291        -1.022591
 C        -3.339077        -3.002790        -2.422720
 H         1.471986         0.426525        -1.465945
 H         1.983292         0.781779         0.152695
 H         1.991266        -0.891222        -0.348739
 H        -2.723517        -1.075158         1.191326
 H        -2.549149         1.649911         0.828873
 H        -2.859954        -0.343483        -1.716932
 H        -3.021293        -3.136880        -0.176495
 H        -3.885826        -3.912584        -2.263072
 H        -3.909981        -2.251122        -3.028573
 H        -2.389286        -3.054017        -2.893447
