19
Iteration:  2607
 C         1.594822         0.010706        -0.235080
 C         0.058293        -0.042369        -0.211927
 C        -1.130611         0.082704         0.038295
 C        -2.557060        -0.274483         0.298438
 O        -3.245263         0.933151         0.659642
 C        -3.303252        -0.916449        -0.781221
 O        -4.511736        -1.684433        -0.478216
 C        -3.313397        -2.354458        -1.063281
 C        -3.356559        -2.872316        -2.507016
 H         1.978226         0.033508         0.742329
 H         2.174172        -0.757075        -0.801971
 H         1.923896         0.952169        -0.792338
 H        -2.666272        -1.058267         1.105343
 H        -2.831766         1.390769         1.407621
 H        -3.431760        -0.164929        -1.533789
 H        -2.980557        -2.976689        -0.258490
 H        -3.997791        -3.769146        -2.447687
 H        -3.767085        -2.145038        -3.282218
 H        -2.312179        -2.971579        -2.778364
