19
Iteration:  3615charge 0 multiplicity 1
 C         1.583527         0.168399        -0.247657
 C         0.183912         0.121244        -0.104233
 C        -1.004839        -0.092326         0.169708
 C        -2.479805        -0.322525         0.413743
 O        -3.158973         0.768996         0.991469
 C        -3.167066        -0.926960        -0.913723
 O        -4.459689        -1.656648        -0.563887
 C        -3.410991        -2.347941        -1.192756
 C        -3.753560        -2.793763        -2.760973
 H         1.931567        -0.503004         0.567763
 H         1.921126        -0.288131        -1.180660
 H         2.033262         1.051027        -0.019418
 H        -2.575208        -1.174617         1.113950
 H        -3.048683         1.474084         0.330225
 H        -3.454983        -0.163739        -1.584136
 H        -2.808715        -2.993567        -0.609496
 H        -4.574569        -3.445208        -2.639495
 H        -4.132140        -1.941355        -3.274453
 H        -2.909399        -3.376149        -3.176584
