19
Iteration:  3641charge 0 multiplicity 1
 C         1.555116         0.092466        -0.265937
 C         0.144233         0.113124        -0.018994
 C        -1.085759        -0.097765        -0.050690
 C        -2.544085        -0.372829         0.367528
 O        -3.098290         0.732629         0.975104
 C        -3.258278        -0.943726        -0.740413
 O        -4.471659        -1.625032        -0.626988
 C        -3.355967        -2.317900        -1.159862
 C        -3.621485        -2.688902        -2.686878
 H         2.179419        -0.165793         0.673386
 H         1.803616        -0.490536        -1.152983
 H         1.983359         1.146566        -0.280978
 H        -2.479975        -1.126773         1.130908
 H        -3.071778         1.452712         0.329004
 H        -3.389240        -0.157508        -1.545292
 H        -2.833723        -3.116796        -0.565605
 H        -4.394537        -3.485417        -2.418748
 H        -4.113917        -1.896485        -3.293636
 H        -2.675209        -3.187119        -3.047921
