19
Iteration:  1748charge 0 multiplicity 1
 C         1.432726        -0.106489        -0.302474
 C        -0.094569         0.095487        -0.094491
 C        -1.231968        -0.086791         0.156748
 C        -2.667853        -0.187233         0.314519
 O        -3.092569         1.202169         0.396257
 C        -3.319934        -0.933099        -0.813969
 O        -4.320936        -1.795440        -0.322962
 C        -3.144840        -2.372168        -1.062861
 C        -3.377826        -2.949006        -2.426718
 H         1.708852         0.711072        -0.974780
 H         1.849014         0.141463         0.624160
 H         1.562588        -1.139846        -0.612638
 H        -3.117697        -0.697386         1.213595
 H        -2.254761         1.647102         0.243143
 H        -3.738710        -0.337215        -1.634751
 H        -2.278326        -2.884598        -0.503727
 H        -3.891048        -3.822362        -2.124670
 H        -4.043449        -2.391395        -3.047581
 H        -2.435255        -3.144172        -2.876939
