19
Iteration:  2966
 C         1.376118         0.253287        -0.435082
 C         0.001636        -0.160501        -0.041878
 C        -1.178585        -0.248151         0.273851
 C        -2.592820        -0.335124         0.459370
 O        -3.063324         0.900768         0.802225
 C        -3.197204        -0.895113        -0.852659
 O        -4.382050        -1.552745        -0.698260
 C        -3.247118        -2.332668        -1.115945
 C        -3.500083        -2.845992        -2.515795
 H         1.925515        -0.506742        -0.880420
 H         1.309928         1.079502        -1.194496
 H         2.017140         0.506429         0.513839
 H        -2.957868        -1.035515         1.326713
 H        -2.399119         1.598845         0.820429
 H        -2.988757        -0.242806        -1.709159
 H        -3.037123        -3.176386        -0.403019
 H        -4.425824        -3.490631        -2.565585
 H        -3.720065        -1.950991        -3.218266
 H        -2.645691        -3.469708        -2.884272
