19
Iteration:  3809charge 0 multiplicity 1
 C         1.329005        -0.020814        -0.645418
 C        -0.027821        -0.230619        -0.165765
 C        -1.149615        -0.270485         0.335666
 C        -2.597210        -0.338961         0.540105
 O        -3.310933         0.921306         1.079760
 C        -3.166962        -0.901356        -0.766492
 O        -4.384027        -1.563493        -0.619964
 C        -3.241035        -2.314017        -1.229456
 C        -3.188290        -2.527709        -2.635093
 H         1.447100         0.980426        -0.481486
 H         2.102751        -0.601228        -0.138372
 H         1.376858        -0.183374        -1.815462
 H        -2.816894        -1.052994         1.360166
 H        -3.021697         1.546774         0.388684
 H        -2.926427        -0.311311        -1.614410
 H        -3.039156        -3.126499        -0.596213
 H        -4.095051        -3.066448        -2.875282
 H        -3.262745        -1.517193        -3.136591
 H        -2.253489        -3.038510        -2.902107
