19
Iteration:  1070
 C         1.393060        -0.162237        -0.423125
 C        -0.038117        -0.160770        -0.089321
 C        -1.208624         0.061586         0.252107
 C        -2.633037        -0.089734         0.321119
 O        -3.431041         1.142353         0.270890
 C        -3.107268        -0.844420        -0.882299
 O        -4.427953        -1.547250        -0.728298
 C        -3.203694        -2.305374        -0.772787
 C        -3.067083        -3.213138        -2.049836
 H         1.825399         0.188300         0.520347
 H         1.529545        -1.292345        -0.562711
 H         1.644603         0.528999        -1.259892
 H        -3.157077        -0.707524         1.053498
 H        -2.975501         1.881743         0.734356
 H        -2.925902        -0.376090        -1.847104
 H        -2.976921        -2.914461         0.094430
 H        -3.735698        -4.035792        -2.011122
 H        -3.139131        -2.489469        -2.838684
 H        -2.085467        -3.608011        -2.125427
