19
Iteration:  4083
 C         1.567253         0.214902        -0.102042
 C         0.181269         0.025056        -0.056805
 C        -0.989865        -0.286651         0.033213
 C        -2.476976        -0.470703         0.379505
 O        -3.093389         0.774692         0.884294
 C        -3.276543        -0.868768        -0.821036
 O        -4.534743        -1.719330        -0.574984
 C        -3.364741        -2.216630        -1.301902
 C        -3.738647        -2.607908        -2.728514
 H         2.030545        -0.591277        -0.617344
 H         1.648552         1.200175        -0.532782
 H         2.137883         0.316926         0.838745
 H        -2.519921        -1.221637         1.249575
 H        -2.391962         1.079612         1.474829
 H        -3.448854        -0.082305        -1.495268
 H        -2.638442        -2.858747        -0.871060
 H        -4.414818        -3.505631        -2.652522
 H        -4.387313        -1.817428        -3.003273
 H        -2.894096        -2.775214        -3.442344
