19
Iteration:  2650charge 0 multiplicity 1
 C         1.525909         0.195389        -0.212977
 C         0.051088        -0.021393        -0.145672
 C        -1.114922        -0.283254         0.014292
 C        -2.640787        -0.300159         0.399066
 O        -3.167257         0.948234         0.707640
 C        -3.284168        -0.856814        -0.865179
 O        -4.410304        -1.622372        -0.538496
 C        -3.267435        -2.320695        -1.093700
 C        -3.483713        -2.914496        -2.494636
 H         1.826670         0.689576         0.586720
 H         1.948611        -0.829137        -0.278314
 H         2.003547         0.769483        -1.071184
 H        -2.723044        -0.940434         1.341907
 H        -2.484866         1.632794         0.712279
 H        -3.300479        -0.275586        -1.781563
 H        -2.767997        -3.051839        -0.381848
 H        -3.947915        -3.836523        -2.176224
 H        -4.239833        -2.287361        -3.041671
 H        -2.616231        -2.956015        -3.105257
