19
Iteration:  1701
 C         1.524065         0.041702        -0.385727
 C         0.087352        -0.133763        -0.067521
 C        -1.085748        -0.068467         0.245938
 C        -2.612929        -0.174197         0.417992
 O        -3.247178         1.150834         0.239671
 C        -3.269017        -0.888507        -0.781595
 O        -4.492969        -1.764892        -0.434350
 C        -3.219531        -2.393420        -0.976878
 C        -3.364780        -2.984901        -2.399324
 H         1.601405         1.122111        -0.500479
 H         2.128881        -0.247366         0.411476
 H         1.638530        -0.550733        -1.295428
 H        -2.778835        -0.493520         1.439430
 H        -3.065962         1.710799         1.055004
 H        -3.232209        -0.217788        -1.621480
 H        -2.912202        -3.159144        -0.158245
 H        -4.015141        -3.851721        -2.389963
 H        -3.945268        -2.213212        -2.878556
 H        -2.398275        -2.944976        -2.864195
