19
Iteration:  1296
 C         1.530265         0.166422        -0.166243
 C         0.101118         0.038536        -0.027191
 C        -1.116278        -0.087418         0.072379
 C        -2.569883        -0.228370         0.254567
 O        -3.151155         1.143465         0.233818
 C        -3.213510        -0.995717        -0.900126
 O        -4.435651        -1.552429        -0.481573
 C        -3.346783        -2.447901        -0.952430
 C        -3.480250        -3.180334        -2.213667
 H         1.718729         0.515853        -1.255957
 H         1.890606         1.013705         0.457508
 H         2.087666        -0.771623         0.166014
 H        -2.568400        -0.658990         1.292416
 H        -3.974167         1.209612         0.666863
 H        -3.182494        -0.379556        -1.826150
 H        -2.935761        -3.136174        -0.133591
 H        -4.204398        -3.983351        -1.906290
 H        -3.818521        -2.541321        -3.084693
 H        -2.582592        -3.781658        -2.507718
