19
Iteration:  2805
 C         1.498123         0.243794        -0.297914
 C         0.118518         0.137591         0.057545
 C        -1.054939        -0.120587         0.104369
 C        -2.438705        -0.391249         0.335402
 O        -3.105185         0.774829         0.914115
 C        -3.188839        -0.901172        -0.982644
 O        -4.578733        -1.468723        -0.786369
 C        -3.482366        -2.365798        -1.067976
 C        -3.510542        -2.998802        -2.420619
 H         1.456777         0.923327        -1.133927
 H         2.276741         0.571079         0.425549
 H         1.803518        -0.757926        -0.774889
 H        -2.546225        -1.311040         0.996365
 H        -2.517572         1.503048         0.618885
 H        -3.177920        -0.273375        -1.865548
 H        -3.054498        -2.985498        -0.186739
 H        -4.326252        -3.771535        -2.339956
 H        -3.760864        -2.298875        -3.186700
 H        -2.617295        -3.624238        -2.604027
