19
Iteration:  2706charge 0 multiplicity 1
 C         1.485682         0.297456        -0.278646
 C         0.105296         0.021300         0.104331
 C        -1.025575        -0.359199         0.151926
 C        -2.532433        -0.305039         0.334839
 O        -3.033826         1.000498         0.727350
 C        -3.337742        -0.930488        -0.828448
 O        -4.497348        -1.615888        -0.577080
 C        -3.388314        -2.372805        -1.191983
 C        -3.502258        -2.969518        -2.566501
 H         1.725779         1.229137        -0.009215
 H         2.322792        -0.301618         0.087256
 H         1.396676         0.203348        -1.395030
 H        -2.623602        -0.874079         1.331046
 H        -2.717169         1.671475         0.086733
 H        -3.297069        -0.178422        -1.575856
 H        -3.199502        -3.022576        -0.322755
 H        -4.159193        -3.857420        -2.489743
 H        -4.160391        -2.217117        -3.042102
 H        -2.548805        -3.277637        -3.047353
