19
Iteration:  2431
 C         1.367949        -0.007716        -0.488345
 C        -0.039707        -0.118721        -0.251998
 C        -1.224977        -0.172120         0.136903
 C        -2.570389        -0.209789         0.444649
 O        -3.181343         0.998812         0.789947
 C        -3.305444        -0.817176        -0.727327
 O        -4.536203        -1.624278        -0.733877
 C        -3.267861        -2.289069        -0.944005
 C        -3.051199        -2.908776        -2.349576
 H         1.899708        -0.784367        -1.091742
 H         1.517212         1.015169        -1.066659
 H         1.994946         0.019628         0.543149
 H        -2.825481        -0.847401         1.273573
 H        -2.815998         1.542400         0.037608
 H        -3.226253        -0.026257        -1.532725
 H        -3.148657        -3.087743        -0.145081
 H        -3.573513        -3.932966        -2.494273
 H        -3.385394        -2.162334        -3.157605
 H        -1.974611        -3.332273        -2.377430
