19
Iteration:  4886
 C         1.405150         0.277290        -0.379068
 C         0.153931        -0.155460         0.035048
 C        -1.038849        -0.250709         0.162481
 C        -2.467695        -0.602605         0.462523
 O        -3.119637         0.457366         1.241870
 C        -3.152106        -0.874210        -0.799303
 O        -4.450222        -1.346933        -0.690116
 C        -3.438851        -2.244406        -1.313357
 C        -3.611275        -2.456877        -2.866368
 H         2.226440         0.040580         0.303912
 H         1.668988        -0.224588        -1.336207
 H         1.483282         1.390238        -0.588526
 H        -2.630628        -1.642958         1.047680
 H        -2.848728         1.262315         0.748584
 H        -2.885274        -0.080561        -1.540766
 H        -3.435986        -3.240177        -0.749517
 H        -4.472122        -3.149527        -3.029398
 H        -3.660130        -1.502720        -3.299168
 H        -2.636243        -2.835095        -3.259299
