19
Iteration:   554
 C         1.488823        -0.177885        -0.283913
 C         0.021005         0.036427         0.210858
 C        -1.174223         0.032113         0.005440
 C        -2.737983        -0.021447         0.171157
 O        -3.382475         1.265436         0.140965
 C        -3.238801        -0.843538        -0.976549
 O        -4.500995        -1.660099        -0.703819
 C        -3.286183        -2.322859        -0.768893
 C        -2.948211        -3.389120        -1.902738
 H         2.292254         0.278369         0.318792
 H         1.655898        -1.288935        -0.241215
 H         1.446255         0.022823        -1.409772
 H        -3.182426        -0.375201         1.157834
 H        -2.802365         1.894137         0.649682
 H        -3.348850        -0.444263        -1.953726
 H        -3.029314        -2.740228         0.258293
 H        -3.520155        -4.297992        -1.700914
 H        -3.098527        -2.875575        -2.877585
 H        -1.891560        -3.491256        -1.955601
