19
Iteration:  1286charge 0 multiplicity 1
 C         1.551431         0.166801        -0.131244
 C         0.036068         0.076987        -0.100406
 C        -1.119817        -0.102140         0.136821
 C        -2.549723        -0.184774         0.252224
 O        -3.165254         1.153514         0.189641
 C        -3.197472        -0.960703        -0.831366
 O        -4.442929        -1.607785        -0.503918
 C        -3.303074        -2.429456        -0.926893
 C        -3.533110        -3.217948        -2.219030
 H         1.921872         0.386053        -1.203081
 H         2.042109         0.878099         0.506855
 H         2.040507        -0.856005        -0.106286
 H        -2.908337        -0.830712         1.152581
 H        -3.582862         1.284130         1.047882
 H        -3.117634        -0.554179        -1.842975
 H        -2.795649        -2.999009        -0.070925
 H        -4.286469        -4.038427        -2.380593
 H        -3.845794        -2.526413        -3.106914
 H        -2.454939        -3.533437        -2.416554
