19
Iteration:  3114
 C         1.516127        -0.043057        -0.270741
 C         0.018489        -0.187454        -0.175425
 C        -1.164270        -0.084737         0.088014
 C        -2.575123        -0.219089         0.413850
 O        -3.274048         0.914409         0.826702
 C        -3.292441        -0.766237        -0.859020
 O        -4.339219        -1.802080        -0.445798
 C        -3.154192        -2.180400        -1.226557
 C        -3.503767        -2.743193        -2.605371
 H         1.979619        -0.070479         0.617774
 H         1.884996        -0.744133        -0.998450
 H         1.822497         0.861768        -0.874230
 H        -2.559565        -1.170729         1.123889
 H        -2.848463         1.603413         1.348582
 H        -3.774121        -0.015814        -1.564749
 H        -2.339860        -2.714395        -0.672311
 H        -3.935404        -3.677513        -2.465730
 H        -4.114666        -2.091909        -3.197105
 H        -2.551089        -2.979556        -3.056660
