19
Iteration:  3409charge 0 multiplicity 1
 C         1.465271         0.193947        -0.453765
 C         0.098588         0.088908         0.006830
 C        -1.051256        -0.167523         0.264639
 C        -2.483595        -0.492970         0.459349
 O        -3.129574         0.793833         0.890880
 C        -3.194151        -0.930555        -0.886242
 O        -4.493698        -1.494335        -0.728907
 C        -3.346979        -2.292241        -1.133309
 C        -3.584347        -2.820873        -2.587609
 H         1.561817        -0.091220        -1.464743
 H         1.878146         1.189966        -0.227668
 H         1.961387        -0.570677         0.099602
 H        -2.820415        -1.381267         1.110236
 H        -2.449271         1.094089         1.538747
 H        -3.186108        -0.158152        -1.649286
 H        -3.066226        -2.882328        -0.309832
 H        -4.353221        -3.578719        -2.634216
 H        -3.853308        -1.953761        -3.267090
 H        -2.649604        -3.289124        -3.095703
