19
Iteration:  4580charge 0 multiplicity 1
 C         1.511339         0.029340        -0.315670
 C         0.072031        -0.087440        -0.080492
 C        -1.153868        -0.320188         0.110954
 C        -2.584620        -0.394998         0.487467
 O        -2.989771         0.895156         1.057607
 C        -3.515749        -0.854105        -0.732593
 O        -4.386530        -2.103993        -0.485917
 C        -3.255017        -2.139733        -1.366738
 C        -3.505216        -2.185731        -2.885684
 H         1.759679         0.177839        -1.327350
 H         2.027182         0.720734         0.308166
 H         1.908866        -0.993692         0.041719
 H        -2.879386        -1.258095         1.198982
 H        -2.330434         1.540518         0.732530
 H        -4.055160        -0.052655        -1.221996
 H        -2.595452        -2.847079        -1.004108
 H        -3.967295        -3.119636        -3.194991
 H        -4.139978        -1.362138        -3.041452
 H        -2.637587        -1.940128        -3.501218
