19
Iteration:  3077charge 0 multiplicity 1
 C         1.540766        -0.035410        -0.233503
 C         0.027206        -0.014613        -0.249392
 C        -1.178186        -0.094274        -0.055398
 C        -2.517094        -0.246926         0.406597
 O        -3.211921         0.900763         0.813734
 C        -3.291536        -0.875230        -0.777507
 O        -4.457316        -1.754042        -0.493489
 C        -3.322253        -2.307461        -1.098661
 C        -3.399483        -2.664613        -2.589779
 H         2.009216        -0.622132         0.574272
 H         1.913255        -0.636651        -1.068351
 H         1.958893         1.009035        -0.151858
 H        -2.758409        -1.093649         1.226263
 H        -2.582245         1.472873         1.301433
 H        -3.562911        -0.159752        -1.516785
 H        -2.548396        -2.920290        -0.538751
 H        -3.636029        -3.813152        -2.768509
 H        -4.124102        -2.193139        -3.297482
 H        -2.390820        -2.417274        -2.984530
