19
Iteration:  3577
 C         1.571740         0.254445        -0.249579
 C         0.133622        -0.051248        -0.001847
 C        -1.059102        -0.171290         0.082405
 C        -2.452679        -0.435593         0.359797
 O        -3.186705         0.670225         0.831408
 C        -3.143046        -0.819982        -0.860502
 O        -4.403715        -1.561368        -0.527781
 C        -3.390077        -2.294269        -1.226365
 C        -3.758567        -2.780215        -2.600376
 H         2.172369        -0.534653         0.220691
 H         1.873793         0.470974        -1.289742
 H         1.799137         1.300381         0.357754
 H        -2.733664        -1.173761         1.193655
 H        -2.869363         1.578748         0.701139
 H        -3.107306        -0.024756        -1.685680
 H        -2.684452        -2.999618        -0.633769
 H        -4.629232        -3.494729        -2.429545
 H        -4.207589        -1.998342        -3.252232
 H        -3.092433        -3.186860        -3.348399
