19
Iteration:   951
 C         1.437292         0.102220        -0.152468
 C         0.026272        -0.091998        -0.095858
 C        -1.192794        -0.101228         0.066060
 C        -2.644983        -0.113646         0.238394
 O        -3.248353         1.126432         0.340071
 C        -3.125836        -0.946204        -0.940845
 O        -4.494587        -1.464297        -0.724360
 C        -3.281063        -2.374068        -0.827049
 C        -3.222833        -3.334440        -2.017920
 H         2.054851        -0.533654         0.433336
 H         1.593837         0.294912        -1.285485
 H         1.489272         1.098142         0.265495
 H        -2.799203        -0.639811         1.255662
 H        -2.666255         1.675675        -0.327611
 H        -3.028650        -0.532799        -1.966948
 H        -3.403623        -2.842322         0.161797
 H        -3.877548        -4.312858        -1.828658
 H        -3.436805        -2.801985        -2.990368
 H        -2.105666        -3.562829        -2.100825
