19
Iteration:  2122
 C         1.579785         0.228061        -0.247463
 C         0.197569         0.135218         0.081407
 C        -1.010550        -0.003702        -0.022239
 C        -2.467805        -0.291680         0.320751
 O        -3.179370         0.907134         0.550225
 C        -3.205904        -1.008977        -0.874005
 O        -4.549722        -1.502576        -0.501467
 C        -3.519987        -2.415942        -1.019701
 C        -3.525591        -3.138765        -2.350378
 H         2.232927         0.648404         0.521161
 H         2.093390        -0.691980        -0.575078
 H         1.697004         0.891160        -1.091477
 H        -2.639872        -1.175021         1.041790
 H        -3.583206         1.194348        -0.301345
 H        -3.157949        -0.468097        -1.831377
 H        -3.110447        -2.947412        -0.180332
 H        -4.217489        -3.951944        -2.519504
 H        -3.842612        -2.446122        -3.172585
 H        -2.484578        -3.454702        -2.597516
