19
Iteration:  2323
 C         1.508796         0.060408        -0.420606
 C         0.025305         0.041806        -0.030272
 C        -1.158594        -0.029115         0.107893
 C        -2.632700        -0.248972         0.384352
 O        -3.256010         1.013622         0.620069
 C        -3.139486        -0.975507        -0.809102
 O        -4.396471        -1.559857        -0.567544
 C        -3.412468        -2.466271        -1.011061
 C        -3.347510        -2.991488        -2.416163
 H         1.499345         0.428911        -1.416020
 H         2.035963         0.807855         0.195325
 H         2.026966        -0.922917        -0.382542
 H        -2.684249        -1.095162         1.174235
 H        -2.573913         1.644329         0.819873
 H        -2.880900        -0.342657        -1.692005
 H        -3.036898        -3.125986        -0.256911
 H        -3.904701        -3.937558        -2.258370
 H        -3.882527        -2.248728        -3.024535
 H        -2.395038        -3.039805        -2.932127
