19
Iteration:  1252
 C         1.506109         0.076342        -0.162555
 C         0.039730         0.076269        -0.084848
 C        -1.159331        -0.018630         0.099880
 C        -2.579736        -0.177185         0.281233
 O        -3.175116         1.188317         0.271583
 C        -3.246463        -0.986943        -0.800754
 O        -4.464349        -1.689824        -0.541755
 C        -3.246196        -2.419364        -0.929137
 C        -3.472592        -3.175970        -2.233160
 H         1.724577         0.741652        -1.057512
 H         2.032423         0.401111         0.727964
 H         1.842690        -0.975675        -0.294715
 H        -2.980186        -0.592679         1.247341
 H        -2.454788         1.631139        -0.135263
 H        -3.176643        -0.456686        -1.777888
 H        -2.762819        -3.005398        -0.062704
 H        -4.025728        -4.126423        -2.090684
 H        -3.758283        -2.471827        -3.049517
 H        -2.422095        -3.492167        -2.514550
