19
Iteration:  3998
 C         1.446377         0.219901        -0.348759
 C         0.125454        -0.117137         0.095293
 C        -1.083986        -0.413452         0.099182
 C        -2.512026        -0.355682         0.534522
 O        -3.108958         0.848202         0.789361
 C        -3.297633        -0.905056        -0.695695
 O        -4.477237        -1.735264        -0.587236
 C        -3.325050        -2.244060        -1.268619
 C        -3.517943        -2.468150        -2.760231
 H         1.501121         0.103097        -1.368663
 H         1.892106         1.270580        -0.185835
 H         2.012165        -0.621382         0.233781
 H        -2.564313        -1.046071         1.321573
 H        -2.337215         1.272641         1.238328
 H        -3.535443        -0.052013        -1.348670
 H        -2.837239        -3.166588        -0.829939
 H        -4.290435        -3.325033        -2.631007
 H        -3.902382        -1.745555        -3.481868
 H        -2.689388        -2.990041        -3.315791
