19
Iteration:  3416
 C         1.486887         0.244412        -0.407947
 C         0.129251         0.046656        -0.024364
 C        -1.040800        -0.219551         0.261485
 C        -2.518354        -0.501223         0.432039
 O        -3.138232         0.784823         0.890742
 C        -3.223281        -0.844636        -0.839636
 O        -4.523527        -1.499452        -0.725909
 C        -3.334323        -2.308993        -1.201939
 C        -3.591662        -2.814491        -2.572802
 H         1.537544        -0.097483        -1.601988
 H         1.978330         1.220558        -0.373591
 H         2.162976        -0.442774         0.146985
 H        -2.742858        -1.251817         1.179166
 H        -2.505812         1.164226         1.538818
 H        -2.960915        -0.088509        -1.643778
 H        -3.093471        -3.205164        -0.485409
 H        -4.332339        -3.650588        -2.404269
 H        -3.832337        -1.993937        -3.325768
 H        -2.626883        -3.331261        -2.700748
