19
Iteration:  1964charge 0 multiplicity 1
 C         1.377367         0.111865        -0.523875
 C        -0.057983        -0.162409        -0.200791
 C        -1.203755        -0.139261         0.322620
 C        -2.584111        -0.169198         0.422332
 O        -3.138928         1.128544         0.558504
 C        -3.154680        -0.887820        -0.797518
 O        -4.408527        -1.444546        -0.739790
 C        -3.387041        -2.441221        -0.950431
 C        -3.193420        -3.159889        -2.254875
 H         1.856502        -0.854191        -0.626893
 H         1.438245         0.529862        -1.496603
 H         1.728649         0.734658         0.282685
 H        -2.905345        -0.951337         1.187747
 H        -3.418606         1.372120         1.480207
 H        -2.908802        -0.477608        -1.751128
 H        -3.212631        -3.091910        -0.211966
 H        -3.818177        -4.062791        -2.161605
 H        -3.525388        -2.471722        -2.977205
 H        -2.137872        -3.367892        -2.318199
