19
Iteration:  1862charge 0 multiplicity 1
 C         1.462728        -0.188379        -0.320406
 C         0.052961         0.019764        -0.223047
 C        -1.187054         0.028690         0.003239
 C        -2.617119        -0.073818         0.397536
 O        -3.288836         1.141706         0.530130
 C        -3.317820        -0.902997        -0.746602
 O        -4.464095        -1.828641        -0.482798
 C        -3.186921        -2.368245        -0.955891
 C        -3.235251        -2.903278        -2.370412
 H         1.602503        -0.853727        -1.151679
 H         2.051691         0.817747        -0.220841
 H         1.873507        -0.743486         0.548936
 H        -2.656694        -0.658701         1.393520
 H        -2.841676         1.800353        -0.041774
 H        -3.339043        -0.181471        -1.620828
 H        -2.679499        -3.062040        -0.378027
 H        -3.565343        -3.925939        -2.048904
 H        -3.968618        -2.585515        -3.131460
 H        -2.205714        -2.837539        -2.793830
