19
Iteration:  2856charge 0 multiplicity 1
 C         1.515808         0.253590        -0.345309
 C         0.093567        -0.049279        -0.224835
 C        -1.065266        -0.095505         0.174564
 C        -2.511499        -0.394593         0.434187
 O        -3.195236         0.686437         0.979240
 C        -3.129761        -0.794419        -0.859256
 O        -4.453441        -1.370274        -0.836973
 C        -3.443836        -2.268003        -1.175585
 C        -3.535264        -3.090211        -2.362251
 H         1.864865         0.478277        -1.336759
 H         1.665598         1.022116         0.438191
 H         2.132550        -0.566149         0.171028
 H        -2.798167        -1.244835         1.040652
 H        -3.080699         1.424665         0.343963
 H        -2.952662        -0.098045        -1.643176
 H        -3.090187        -2.754976        -0.255923
 H        -4.082455        -3.973565        -2.135267
 H        -3.924098        -2.554447        -3.266019
 H        -2.549202        -3.414856        -2.605686
