19
Iteration:  4881
 C         1.388794         0.296867        -0.433799
 C         0.137114        -0.170312         0.037373
 C        -1.060347        -0.304952         0.178813
 C        -2.427409        -0.608576         0.486796
 O        -3.123392         0.463041         1.228837
 C        -3.137028        -0.898319        -0.810170
 O        -4.450101        -1.321779        -0.715431
 C        -3.427441        -2.264740        -1.325202
 C        -3.602045        -2.410501        -2.800794
 H         2.100709        -0.042913         0.350721
 H         1.810614        -0.200082        -1.306280
 H         1.312875         1.384407        -0.396257
 H        -2.595385        -1.452765         1.064996
 H        -2.919500         1.322764         0.831405
 H        -2.968549        -0.111820        -1.553011
 H        -3.383370        -3.133885        -0.740288
 H        -4.272980        -3.232469        -3.100613
 H        -3.764030        -1.454149        -3.443002
 H        -2.707310        -2.912747        -3.171796
