19
Iteration:  2363
 C         1.447564        -0.048768        -0.544060
 C         0.098967         0.106866         0.009374
 C        -1.108243         0.006537         0.256464
 C        -2.644853        -0.288616         0.418672
 O        -3.273364         0.905629         0.708800
 C        -3.273769        -0.793280        -0.874298
 O        -4.483450        -1.613663        -0.688599
 C        -3.221376        -2.210153        -1.040659
 C        -3.299513        -3.102573        -2.342075
 H         1.507967        -0.252523        -1.627108
 H         2.059626         0.936700        -0.388888
 H         2.107180        -0.872053        -0.070592
 H        -2.902251        -0.868137         1.243916
 H        -2.548695         1.585671         0.677717
 H        -3.407112        -0.142045        -1.732065
 H        -2.888130        -2.848401        -0.193061
 H        -3.883657        -4.037656        -2.131244
 H        -3.740142        -2.575292        -3.214364
 H        -2.296802        -3.516089        -2.758264
