19
Iteration:  3298
 C         1.359118        -0.005888        -0.430089
 C         0.021603        -0.008894        -0.093076
 C        -1.180070        -0.207238         0.048756
 C        -2.607189        -0.358205         0.453582
 O        -3.077574         0.923932         0.964643
 C        -3.282245        -0.770798        -0.823778
 O        -4.516475        -1.739058        -0.588601
 C        -3.215897        -2.135124        -1.189722
 C        -3.307547        -2.800618        -2.580562
 H         1.551135         0.964778        -1.030672
 H         1.994247        -0.001695         0.455811
 H         1.742571        -0.895718        -1.049525
 H        -2.809367        -1.181368         1.231909
 H        -2.409002         1.317836         1.539109
 H        -3.453934        -0.069851        -1.684584
 H        -2.778554        -2.870695        -0.496754
 H        -3.842687        -3.783959        -2.624511
 H        -3.794808        -1.956911        -3.210580
 H        -2.260885        -2.927349        -3.034658
