19
Iteration:  2566
 C         1.486006        -0.058177        -0.392150
 C         0.111892         0.094762         0.011002
 C        -1.156982        -0.064025         0.061633
 C        -2.626862        -0.269668         0.359516
 O        -3.257545         1.035117         0.678183
 C        -3.317893        -0.866462        -0.824994
 O        -4.452251        -1.676843        -0.561641
 C        -3.177366        -2.315722        -1.069593
 C        -3.350995        -2.930717        -2.453037
 H         2.115370        -0.703080         0.382886
 H         1.595558        -0.577488        -1.342954
 H         1.831286         0.957034        -0.551549
 H        -2.724790        -0.906367         1.204787
 H        -2.754862         1.075417         1.524635
 H        -3.442645        -0.238333        -1.667470
 H        -2.618274        -2.882423        -0.386598
 H        -4.070302        -3.766415        -2.454974
 H        -3.857941        -2.320792        -3.217216
 H        -2.442613        -3.326368        -2.938276
