19
Iteration:  4698
 C         1.473341        -0.099674        -0.505200
 C         0.101070         0.045875        -0.044885
 C        -1.097752        -0.139978         0.212771
 C        -2.464994        -0.434648         0.546768
 O        -3.229101         0.544919         1.270493
 C        -3.300473        -0.840677        -0.752153
 O        -4.539291        -1.587299        -0.692407
 C        -3.214689        -2.201264        -1.346894
 C        -3.471428        -2.397172        -2.863843
 H         1.613262        -0.879991        -1.199919
 H         1.645576         0.791811        -1.069014
 H         2.283827        -0.046050         0.271758
 H        -2.317066        -1.211315         1.151277
 H        -2.831023         1.426665         1.154275
 H        -3.368957        -0.019286        -1.373694
 H        -2.820913        -3.114930        -0.940310
 H        -3.923589        -3.374331        -2.976709
 H        -3.912793        -1.498545        -3.344384
 H        -2.489892        -2.484014        -3.133936
