19
Iteration:  2728
 C         1.462875         0.348350        -0.266616
 C         0.062162        -0.075933        -0.052548
 C        -1.149490        -0.286492         0.148914
 C        -2.532877        -0.433257         0.431956
 O        -3.055439         0.935040         0.659196
 C        -3.155899        -0.960355        -0.873209
 O        -4.503928        -1.575395        -0.614008
 C        -3.353396        -2.337299        -1.084137
 C        -3.577372        -2.855587        -2.468234
 H         1.639925         1.324109        -0.066960
 H         2.148602        -0.119890         0.457281
 H         1.870215         0.030731        -1.269773
 H        -2.646542        -1.096939         1.361420
 H        -2.717202         1.420554        -0.115055
 H        -3.003312        -0.258748        -1.682622
 H        -2.798743        -3.016984        -0.354412
 H        -4.287415        -3.675181        -2.642533
 H        -3.909031        -1.959648        -3.026474
 H        -2.529720        -3.087788        -2.687892
