19
Iteration:  2243charge 0 multiplicity 1
 C         1.453669         0.310195        -0.205292
 C         0.157017        -0.017964         0.130281
 C        -1.070245        -0.154705        -0.137565
 C        -2.587103        -0.309904         0.221371
 O        -2.971473         1.061999         0.520327
 C        -3.412135        -0.886020        -0.843638
 O        -4.505608        -1.713861        -0.488184
 C        -3.361532        -2.360962        -1.070343
 C        -3.516360        -3.051390        -2.335256
 H         1.620929         1.315379        -0.595777
 H         2.244153         0.222686         0.593248
 H         1.766406        -0.392013        -1.019541
 H        -2.594378        -1.048361         1.083889
 H        -2.589784         1.255108         1.370011
 H        -3.506915        -0.224115        -1.702399
 H        -2.816717        -2.971112        -0.471681
 H        -4.221922        -3.900247        -2.434316
 H        -3.800893        -2.508230        -3.212539
 H        -2.535742        -3.553199        -2.518485
