19
Iteration:  2776
 C         1.589451         0.289248        -0.254495
 C         0.121581         0.019418        -0.164527
 C        -1.062150        -0.208089         0.107525
 C        -2.523521        -0.427573         0.489722
 O        -3.198563         0.885188         0.772704
 C        -3.171474        -0.954864        -0.796598
 O        -4.478590        -1.455937        -0.687016
 C        -3.524641        -2.386068        -1.067613
 C        -3.491648        -2.971419        -2.549517
 H         1.733784         1.376284        -0.690392
 H         2.191093         0.446720         0.615402
 H         2.033213        -0.377275        -0.917404
 H        -2.785349        -1.204663         1.254036
 H        -2.566824         1.551273         0.430070
 H        -3.169009        -0.228123        -1.661383
 H        -3.325508        -3.180206        -0.409438
 H        -4.370252        -3.702955        -2.538504
 H        -3.765126        -2.175647        -3.258362
 H        -2.503520        -3.588068        -2.640383
