19
Iteration:  3110
 C         1.513369        -0.038151        -0.273876
 C         0.011465        -0.204849        -0.212603
 C        -1.178388        -0.059545         0.108823
 C        -2.552019        -0.200428         0.384851
 O        -3.267326         0.890174         0.818352
 C        -3.313083        -0.805659        -0.803317
 O        -4.351519        -1.765925        -0.446445
 C        -3.150967        -2.188466        -1.217099
 C        -3.497135        -2.712935        -2.615720
 H         2.034950        -0.106081         0.762052
 H         1.916279        -0.771515        -0.981412
 H         1.865344         0.973302        -0.768755
 H        -2.613549        -1.188216         0.975158
 H        -2.806199         1.606195         1.297199
 H        -3.766004        -0.113227        -1.474686
 H        -2.325937        -2.750129        -0.664386
 H        -3.853615        -3.836801        -2.429644
 H        -4.153983        -2.158359        -3.325179
 H        -2.506782        -3.012141        -3.061701
