19
Iteration:  1043
 C         1.396664        -0.170203        -0.380357
 C        -0.047911         0.018136        -0.106933
 C        -1.228570         0.031625         0.210512
 C        -2.696061        -0.093099         0.410142
 O        -3.303313         1.265695         0.397552
 C        -3.145027        -0.930005        -0.837808
 O        -4.411950        -1.557045        -0.835589
 C        -3.214789        -2.411159        -0.825883
 C        -3.101379        -3.276386        -2.040158
 H         2.010958        -0.123427         0.589781
 H         1.394850        -1.099824        -0.889669
 H         1.769944         0.618984        -1.108381
 H        -3.238593        -0.575990         1.257449
 H        -3.084925         1.714177        -0.467414
 H        -2.916361        -0.377740        -1.774954
 H        -3.103251        -3.052380         0.076328
 H        -3.845086        -4.162243        -2.034166
 H        -3.235830        -2.596217        -2.940170
 H        -1.976060        -3.578166        -2.136302
