19
Iteration:  1434
 C         1.559916         0.390070        -0.348074
 C         0.172407        -0.094605         0.035204
 C        -1.031179        -0.087014         0.119469
 C        -2.439827        -0.347084         0.264175
 O        -3.141462         0.982693         0.458860
 C        -3.232000        -0.960035        -0.929317
 O        -4.552119        -1.342118        -0.821779
 C        -3.502571        -2.409189        -0.890616
 C        -3.489666        -3.305977        -2.058198
 H         2.343107        -0.223545        -0.631439
 H         1.475137         1.037773        -1.281798
 H         1.928574         0.962143         0.439241
 H        -2.533136        -0.897186         1.238231
 H        -3.870879         0.862277         1.207586
 H        -2.867093        -0.399633        -1.834368
 H        -3.708551        -2.906536         0.028354
 H        -4.315483        -4.040816        -2.123399
 H        -3.287179        -2.770116        -2.971058
 H        -2.616621        -3.982222        -1.868631
