19
Iteration:  3988charge 0 multiplicity 1
 C         1.406287         0.166384        -0.373341
 C         0.073887        -0.085915         0.086353
 C        -1.104587        -0.293641         0.115956
 C        -2.519289        -0.489471         0.466957
 O        -3.056178         0.890833         0.840579
 C        -3.332395        -0.950914        -0.677734
 O        -4.473742        -1.691027        -0.601276
 C        -3.294266        -2.260947        -1.312577
 C        -3.491147        -2.521215        -2.737845
 H         1.533661         0.001935        -1.400196
 H         1.879722         1.087497         0.081334
 H         2.118258        -0.578181        -0.008845
 H        -2.668500        -1.057670         1.365166
 H        -2.419987         1.481494         1.282543
 H        -3.388842        -0.070312        -1.386348
 H        -2.813973        -2.997972        -0.607850
 H        -4.238344        -3.349946        -2.895673
 H        -3.971681        -1.618621        -3.138894
 H        -2.522281        -2.765256        -3.201753
