19
Iteration:   547
 C         1.477248        -0.175147        -0.296212
 C         0.055015         0.020096         0.184801
 C        -1.218922        -0.026402         0.034890
 C        -2.729912        -0.021957         0.183250
 O        -3.419318         1.312877         0.136633
 C        -3.255773        -0.887087        -0.986971
 O        -4.476941        -1.689456        -0.704169
 C        -3.243693        -2.295053        -0.810649
 C        -2.989944        -3.299995        -1.848432
 H         2.307311         0.172879         0.328329
 H         1.573264        -1.295470        -0.091579
 H         1.692138         0.195612        -1.266169
 H        -2.884415        -0.686341         1.045050
 H        -2.753573         1.872777         0.475775
 H        -3.413439        -0.356158        -1.967241
 H        -2.958223        -2.621756         0.241571
 H        -3.407214        -4.308266        -1.723916
 H        -3.178948        -3.128625        -2.902470
 H        -1.890341        -3.458942        -1.882587
