19
Iteration:  2433charge 0 multiplicity 1
 C         1.372834         0.000467        -0.497503
 C        -0.026991        -0.103135        -0.234483
 C        -1.235309        -0.192779         0.127103
 C        -2.577866        -0.204102         0.445861
 O        -3.175668         0.993142         0.785280
 C        -3.316732        -0.820965        -0.718095
 O        -4.546082        -1.615740        -0.725480
 C        -3.285573        -2.291241        -0.948856
 C        -3.032705        -2.918988        -2.348912
 H         1.923853        -0.837590        -1.063855
 H         1.566541         0.961559        -1.065519
 H         1.985687         0.025700         0.479400
 H        -2.847043        -0.778880         1.356185
 H        -2.839516         1.528909         0.001736
 H        -3.180082        -0.035772        -1.487077
 H        -3.076549        -3.039876        -0.222394
 H        -3.559648        -3.925323        -2.512428
 H        -3.344880        -2.149999        -3.148568
 H        -1.971995        -3.302475        -2.465226
