19
Iteration:  2273
 C         1.525014         0.270806        -0.233158
 C         0.145980        -0.038010        -0.229099
 C        -1.039811        -0.252882         0.103088
 C        -2.594472        -0.300899         0.345362
 O        -3.178880         1.048504         0.487287
 C        -3.328699        -0.948987        -0.850853
 O        -4.490080        -1.614372        -0.454831
 C        -3.372603        -2.391804        -1.016561
 C        -3.461191        -2.992202        -2.397481
 H         1.836870         1.229146        -0.861550
 H         1.805710         0.400555         0.817162
 H         2.034256        -0.587404        -0.671474
 H        -2.788727        -0.933261         1.156738
 H        -2.664679         1.465605         1.228442
 H        -3.224515        -0.190617        -1.630368
 H        -2.807969        -3.104256        -0.230543
 H        -4.076656        -3.889278        -2.556082
 H        -3.643334        -2.145742        -3.130377
 H        -2.373227        -3.230523        -2.578588
