19
Iteration:  3572charge 0 multiplicity 1
 C         1.588440         0.278392        -0.248589
 C         0.135303        -0.040650         0.013319
 C        -1.072233        -0.237662         0.061807
 C        -2.476985        -0.402264         0.336706
 O        -3.193437         0.669828         0.837103
 C        -3.161137        -0.853802        -0.858997
 O        -4.400228        -1.570530        -0.555352
 C        -3.365860        -2.238629        -1.209891
 C        -3.766380        -2.771852        -2.572655
 H         2.392916        -0.431473         0.224042
 H         1.782671         0.544942        -1.296830
 H         1.817284         1.046693         0.338655
 H        -2.561861        -1.122677         1.109844
 H        -2.795382         1.544742         0.768870
 H        -3.073159        -0.218939        -1.687320
 H        -2.948683        -3.057095        -0.687237
 H        -4.563917        -3.467989        -2.443484
 H        -4.258485        -1.941242        -3.082832
 H        -2.971436        -3.185404        -3.279024
