19
Iteration:  2132
 C         1.637807         0.266733        -0.256942
 C         0.204155         0.114187         0.081985
 C        -1.012574        -0.033458        -0.039018
 C        -2.449859        -0.274782         0.232782
 O        -3.208465         0.908095         0.570390
 C        -3.206885        -1.055587        -0.885182
 O        -4.571515        -1.497066        -0.542730
 C        -3.456841        -2.506160        -0.923482
 C        -3.578377        -3.037857        -2.371269
 H         2.125011         0.710873         0.679875
 H         1.925817        -0.768998        -0.246145
 H         1.786582         0.842745        -1.153074
 H        -2.540537        -0.785377         1.363828
 H        -3.540474         1.142465        -0.352941
 H        -3.349714        -0.415314        -1.792907
 H        -3.130259        -3.295739        -0.384266
 H        -4.069455        -4.001525        -2.260856
 H        -3.987236        -2.276924        -3.081933
 H        -2.496156        -3.285232        -2.553122
