19
Iteration:  1336
 C         1.608929         0.258430        -0.206981
 C         0.199363        -0.018787         0.036735
 C        -1.049604        -0.057572        -0.013189
 C        -2.537008        -0.211669         0.185960
 O        -3.230955         1.048142         0.491933
 C        -3.197691        -1.002618        -0.962377
 O        -4.512932        -1.501775        -0.640012
 C        -3.421706        -2.436916        -0.861730
 C        -3.504701        -3.231319        -2.134162
 H         2.045720         0.128448        -1.172435
 H         1.737280         1.363219         0.050297
 H         2.246866        -0.333851         0.400848
 H        -2.897441        -0.888729         0.955691
 H        -3.312588         1.523218        -0.422247
 H        -3.291535        -0.616487        -2.006008
 H        -3.131038        -2.997217         0.038414
 H        -4.221995        -4.021420        -1.983580
 H        -3.971774        -2.689066        -2.900340
 H        -2.578054        -3.681649        -2.399969
