19
Iteration:   906
 C         1.549800         0.205914        -0.042385
 C         0.105705         0.190831        -0.004802
 C        -1.088642        -0.096379         0.086007
 C        -2.521556        -0.154997         0.140271
 O        -3.101569         1.262525         0.262340
 C        -3.231720        -1.002295        -0.865511
 O        -4.577007        -1.607389        -0.761326
 C        -3.388512        -2.485669        -0.889871
 C        -3.402865        -3.387262        -2.075601
 H         1.795346        -0.862473         0.063169
 H         1.892836         0.572538        -1.107162
 H         2.092811         0.649728         0.811060
 H        -2.785763        -0.554436         1.209755
 H        -4.132398         1.116262         0.359158
 H        -3.134041        -0.574576        -1.884566
 H        -2.969537        -2.896345         0.080473
 H        -4.152730        -4.282711        -1.751073
 H        -3.694345        -2.822828        -3.000412
 H        -2.425306        -3.934831        -2.270361
