19
Iteration:   180
 C         1.528372         0.281215        -0.125932
 C         0.039291         0.130767         0.061375
 C        -1.147525        -0.082054         0.061319
 C        -2.606239        -0.162415         0.136831
 O        -3.231203         1.128646         0.080445
 C        -3.037589        -1.055497        -0.930053
 O        -4.499039        -1.420862        -0.898290
 C        -3.493031        -2.451067        -0.733384
 C        -3.352553        -3.486905        -1.704703
 H         1.666457         1.265569        -0.525439
 H         1.965408         0.044272         0.804787
 H         1.996190        -0.486798        -0.766503
 H        -2.917634        -0.653288         1.094781
 H        -2.593949         1.738475        -0.404855
 H        -2.445526        -0.781307        -1.867342
 H        -3.504617        -2.880795         0.357164
 H        -4.135398        -4.273205        -1.764012
 H        -3.245297        -3.231788        -2.768501
 H        -2.388532        -4.021382        -1.561826
