19
Iteration:  1829
 C         1.359088        -0.143185        -0.207732
 C        -0.034646        -0.114061        -0.348534
 C        -1.240411        -0.074251         0.012833
 C        -2.661349        -0.107832         0.300335
 O        -3.172527         1.176624         0.540051
 C        -3.317571        -0.844821        -0.843379
 O        -4.350057        -1.778824        -0.327100
 C        -3.118503        -2.357613        -0.951011
 C        -3.250652        -2.857306        -2.330899
 H         1.970539        -0.243302        -1.115054
 H         1.880445         0.850572         0.161971
 H         1.650175        -0.989130         0.462220
 H        -2.992684        -0.764785         1.191739
 H        -3.509092         1.488993        -0.284332
 H        -3.444878        -0.359323        -1.868305
 H        -2.481511        -2.982494        -0.441722
 H        -3.244063        -3.980063        -2.443594
 H        -4.077290        -2.448653        -2.949995
 H        -2.329855        -2.826778        -2.965922
