19
Iteration:  1488charge 0 multiplicity 1
 C         1.436278         0.302139        -0.366534
 C         0.045216         0.179731        -0.170650
 C        -1.080145        -0.198354         0.296637
 C        -2.518643        -0.274301         0.393580
 O        -3.134384         0.969971         0.515966
 C        -2.959989        -1.064681        -0.861899
 O        -4.453720        -1.395819        -0.881077
 C        -3.392174        -2.456156        -0.828761
 C        -3.591913        -3.197463        -2.118452
 H         1.875251        -0.569547         0.044511
 H         1.707569         0.072592        -1.443318
 H         1.991526         1.156638        -0.091781
 H        -2.745297        -0.709597         1.407210
 H        -3.738951         1.165675        -0.320222
 H        -2.516667        -0.598758        -1.785778
 H        -3.508442        -2.939890         0.090888
 H        -4.555394        -3.792023        -2.035224
 H        -3.686846        -2.446275        -2.921412
 H        -2.776015        -3.890526        -2.510004
