19
Iteration:  4579charge 0 multiplicity 1
 C         1.513389         0.028001        -0.325568
 C         0.068814        -0.082713        -0.071200
 C        -1.155096        -0.331880         0.105932
 C        -2.579317        -0.389486         0.491445
 O        -2.990144         0.892869         1.053257
 C        -3.518059        -0.854708        -0.725807
 O        -4.391471        -2.099212        -0.493755
 C        -3.248381        -2.147083        -1.367258
 C        -3.506749        -2.182288        -2.889139
 H         1.791708         0.209513        -1.295818
 H         2.016690         0.702940         0.311623
 H         1.908023        -0.996953         0.057925
 H        -2.853040        -1.222884         1.198014
 H        -2.346106         1.574615         0.759296
 H        -4.081826        -0.101878        -1.216519
 H        -2.535310        -2.832856        -0.988686
 H        -3.975916        -3.135773        -3.158550
 H        -4.181521        -1.339816        -3.041094
 H        -2.635863        -1.943819        -3.456300
