19
Iteration:  2234charge 0 multiplicity 1
 C         1.521342         0.342194        -0.234883
 C         0.075122        -0.004158         0.174262
 C        -1.076082        -0.178553        -0.126270
 C        -2.485182        -0.289596         0.235497
 O        -2.964157         1.050613         0.544282
 C        -3.440945        -0.861125        -0.893907
 O        -4.527283        -1.744246        -0.527107
 C        -3.351654        -2.344672        -1.078638
 C        -3.547581        -3.121367        -2.325250
 H         1.612697         1.336546        -0.404283
 H         2.153005         0.011238         0.634689
 H         1.890329        -0.307842        -1.065685
 H        -2.657521        -0.960599         1.221527
 H        -2.500714         1.392052         1.302420
 H        -3.630637        -0.427416        -1.866163
 H        -2.576495        -2.652053        -0.407079
 H        -4.394913        -3.868597        -2.238235
 H        -3.859255        -2.321477        -2.982859
 H        -2.621294        -3.503465        -2.760072
