19
Iteration:  2655charge 0 multiplicity 1
 C         1.465877         0.210607        -0.240341
 C         0.118404        -0.013058        -0.120998
 C        -1.099562        -0.258619         0.060875
 C        -2.598820        -0.328701         0.384072
 O        -3.139301         0.975660         0.720341
 C        -3.320464        -0.894262        -0.872900
 O        -4.447910        -1.617353        -0.557270
 C        -3.242667        -2.343124        -1.088809
 C        -3.521792        -2.939315        -2.524146
 H         1.883177         0.714794         0.788800
 H         1.968066        -0.761851        -0.165701
 H         1.822932         0.632361        -1.158812
 H        -2.792352        -0.936829         1.258356
 H        -2.432633         1.643187         0.637681
 H        -3.340467        -0.082582        -1.645890
 H        -2.628273        -2.771704        -0.306010
 H        -4.014741        -3.927196        -2.330719
 H        -4.270046        -2.393134        -3.073383
 H        -2.522841        -2.941956        -3.062075
