19
Iteration:  3820
 C         1.277579        -0.030808        -0.655002
 C        -0.051405        -0.181094        -0.191492
 C        -1.151809        -0.238886         0.361092
 C        -2.591443        -0.279455         0.526225
 O        -3.249600         0.847477         1.066722
 C        -3.156103        -0.876568        -0.706910
 O        -4.365350        -1.558388        -0.664661
 C        -3.251024        -2.338411        -1.115862
 C        -3.214235        -2.532066        -2.721069
 H         1.709393         0.863843        -0.561004
 H         1.882409        -0.612140         0.065704
 H         1.617114        -0.497348        -1.660144
 H        -2.924506        -1.054633         1.236488
 H        -3.348212         1.694226         0.604687
 H        -3.227039        -0.156011        -1.496381
 H        -2.881538        -3.099403        -0.490230
 H        -3.990724        -3.202162        -3.089736
 H        -3.132720        -1.581166        -3.323308
 H        -2.312943        -3.144118        -2.936597
