19
Iteration:  2052charge 0 multiplicity 1
 C         1.397929         0.216111        -0.382446
 C        -0.011639        -0.091518        -0.181865
 C        -1.186902        -0.127239         0.128626
 C        -2.544682        -0.291026         0.381884
 O        -3.154613         0.998479         0.724024
 C        -3.108593        -0.910109        -0.918055
 O        -4.475869        -1.389634        -0.798128
 C        -3.359716        -2.353003        -0.920846
 C        -3.364574        -3.261955        -2.200283
 H         2.071326        -0.123110         0.456555
 H         1.902917        -0.137022        -1.282739
 H         1.432291         1.326792        -0.497165
 H        -2.708511        -0.993732         1.368070
 H        -2.491916         1.718569         0.518574
 H        -2.674959        -0.350003        -1.781357
 H        -3.073330        -2.900446        -0.039770
 H        -4.338145        -3.819312        -2.263993
 H        -3.547880        -2.662101        -3.098129
 H        -2.460496        -3.855383        -2.358238
