19
Iteration:  2589
 C         1.547744         0.004117        -0.307966
 C         0.103914         0.038890        -0.070312
 C        -1.068312        -0.030857        -0.040368
 C        -2.476669        -0.183622         0.413747
 O        -3.308349         0.994790         0.689910
 C        -3.345331        -0.874116        -0.831661
 O        -4.488104        -1.731187        -0.508545
 C        -3.383686        -2.345804        -1.122594
 C        -3.335419        -2.920049        -2.468105
 H         2.098844        -0.419355         0.663411
 H         1.713601        -0.830464        -0.976143
 H         1.936023         0.890937        -0.751447
 H        -2.440207        -0.805867         1.284188
 H        -3.028007         1.279931         1.583399
 H        -3.457110        -0.267886        -1.727604
 H        -2.734103        -2.933770        -0.466594
 H        -3.944158        -3.812922        -2.694984
 H        -3.733292        -2.258116        -3.218125
 H        -2.292317        -3.203097        -2.746191
