19
Iteration:  2444
 C         1.415729         0.019732        -0.530062
 C         0.002251        -0.045564        -0.155087
 C        -1.191573        -0.270569         0.077262
 C        -2.674252        -0.278219         0.517602
 O        -3.153030         1.057018         0.752939
 C        -3.340839        -0.886363        -0.709980
 O        -4.575725        -1.570619        -0.678386
 C        -3.322021        -2.313858        -1.022337
 C        -2.979426        -2.925314        -2.354946
 H         1.651219        -0.999968        -0.998193
 H         1.743529         0.846504        -1.209783
 H         1.997456         0.162158         0.442312
 H        -2.699416        -0.830229         1.471000
 H        -3.129075         1.680198         0.020819
 H        -3.247418        -0.293557        -1.633037
 H        -2.906312        -2.768849        -0.162825
 H        -3.637048        -3.824957        -2.543220
 H        -3.271003        -2.198171        -3.205359
 H        -1.879899        -3.038314        -2.511915
