19
Iteration:  1887charge 0 multiplicity 1
 C         1.406677        -0.161163        -0.449132
 C         0.079229        -0.023710         0.028777
 C        -1.141397         0.098849         0.080879
 C        -2.608468        -0.112162         0.258754
 O        -3.298377         1.137400         0.538205
 C        -3.370269        -0.866347        -0.802137
 O        -4.432281        -1.721477        -0.446886
 C        -3.218404        -2.409110        -0.992617
 C        -3.203883        -3.047202        -2.373488
 H         1.460112        -0.996534        -1.252330
 H         1.784206         0.842948        -0.717978
 H         2.029134        -0.414399         0.438070
 H        -2.727396        -0.810789         1.133746
 H        -2.603384         1.848320         0.707013
 H        -3.424818        -0.205027        -1.619864
 H        -2.751674        -3.073101        -0.301303
 H        -3.839560        -4.029573        -2.467899
 H        -3.569540        -2.351777        -3.114906
 H        -2.105397        -3.093242        -2.549885
