19
Iteration:  2004
 C         1.458226         0.185601        -0.530993
 C         0.135509         0.035090        -0.028184
 C        -1.025699        -0.256841         0.162760
 C        -2.627745        -0.320245         0.403842
 O        -3.156253         0.960666         0.529011
 C        -3.262139        -0.915144        -0.781070
 O        -4.592741        -1.426052        -0.883322
 C        -3.499646        -2.335211        -0.868619
 C        -3.162935        -3.091943        -2.117918
 H         2.000574        -0.686664        -0.234184
 H         1.360086         0.080149        -1.710383
 H         2.095749         1.092500        -0.377109
 H        -2.837450        -0.740390         1.384383
 H        -3.113901         1.106058         1.455981
 H        -2.982106        -0.291657        -1.669875
 H        -3.635974        -2.960087         0.147894
 H        -3.693230        -4.014136        -2.335523
 H        -3.443507        -2.457016        -3.001998
 H        -2.066490        -3.176684        -2.155233
