19
Iteration:  2552
 C         1.390077        -0.022300        -0.406943
 C         0.009520        -0.029581        -0.068326
 C        -1.199999        -0.040357         0.227147
 C        -2.560867        -0.260061         0.374348
 O        -3.193364         0.998161         0.674401
 C        -3.259088        -0.834729        -0.931510
 O        -4.386752        -1.719340        -0.578052
 C        -3.208522        -2.256122        -1.082141
 C        -3.382216        -2.935753        -2.414213
 H         1.934321        -0.645279         0.275002
 H         1.429580        -0.458940        -1.449342
 H         2.007658         0.954372        -0.305868
 H        -2.729639        -1.020714         1.151482
 H        -2.849674         1.635567         1.312045
 H        -3.367952        -0.141041        -1.786875
 H        -2.574008        -2.873064        -0.382579
 H        -3.945950        -3.898250        -2.273408
 H        -3.821467        -2.082240        -3.004625
 H        -2.378794        -3.268702        -2.733333
