19
Iteration:  2349charge 0 multiplicity 1
 C         1.479065        -0.001825        -0.507215
 C         0.086923         0.108321         0.030808
 C        -1.073210        -0.007677         0.305077
 C        -2.515330        -0.241647         0.347731
 O        -3.294561         0.985486         0.697741
 C        -3.302518        -0.882054        -0.890105
 O        -4.483436        -1.606390        -0.666768
 C        -3.330461        -2.381034        -1.061499
 C        -3.326655        -3.066919        -2.353075
 H         1.277027        -0.077877        -1.622789
 H         2.153162         0.780908        -0.301909
 H         1.868412        -0.919870        -0.191305
 H        -2.533208        -1.153298         1.014826
 H        -2.754247         1.760157         0.774298
 H        -3.306924        -0.159522        -1.707693
 H        -2.715951        -2.923437        -0.190677
 H        -3.833187        -3.973739        -2.178382
 H        -3.724494        -2.397274        -3.146539
 H        -2.313215        -3.206723        -2.675393
