19
Iteration:  1302
 C         1.510504         0.185827        -0.206854
 C         0.115091        -0.001526         0.033313
 C        -1.077352        -0.058378         0.012680
 C        -2.554450        -0.206213         0.258280
 O        -3.127450         1.124142         0.265576
 C        -3.193504        -0.998388        -0.910528
 O        -4.450364        -1.548960        -0.493673
 C        -3.366518        -2.444237        -0.926509
 C        -3.473995        -3.194714        -2.227469
 H         1.730067         0.426418        -1.200249
 H         1.787052         1.010039         0.520911
 H         2.049178        -0.601130         0.248822
 H        -2.818934        -0.620013         1.240249
 H        -4.136411         0.866955         0.419407
 H        -3.328341        -0.310654        -1.758092
 H        -3.020975        -2.974002        -0.079419
 H        -4.200359        -3.905818        -1.847888
 H        -3.798520        -2.589366        -3.020018
 H        -2.631376        -3.768687        -2.557727
