19
Iteration:  1679charge 0 multiplicity 1
 C         1.469910         0.072053        -0.423517
 C         0.149004        -0.154756         0.093750
 C        -1.117753        -0.089939         0.103378
 C        -2.609877        -0.215045         0.238000
 O        -3.233270         1.071580         0.309144
 C        -3.276026        -0.935163        -0.820145
 O        -4.474308        -1.617740        -0.382147
 C        -3.346516        -2.371432        -1.012197
 C        -3.290780        -2.956185        -2.302064
 H         1.628668         1.141941        -0.159193
 H         2.244179        -0.344761         0.154357
 H         1.578842        -0.240679        -1.477737
 H        -2.653948        -0.742614         1.231159
 H        -3.247993         1.409805         1.186994
 H        -3.468313        -0.243888        -1.627852
 H        -2.929129        -3.068888        -0.124989
 H        -3.842757        -3.894851        -2.261779
 H        -3.627066        -2.389395        -3.161399
 H        -2.207998        -2.967127        -2.400002
