19
Iteration:  3655
 C         1.511095         0.139472        -0.245265
 C         0.086238        -0.017183        -0.054174
 C        -1.134191        -0.084110        -0.017592
 C        -2.413422        -0.413852         0.393190
 O        -3.088432         0.740364         0.972790
 C        -3.263353        -0.852651        -0.870195
 O        -4.540360        -1.637820        -0.531358
 C        -3.367824        -2.278999        -1.209901
 C        -3.522256        -2.720230        -2.605682
 H         1.991798        -0.257870         0.612061
 H         1.856951        -0.594140        -1.024330
 H         1.802432         1.226150        -0.704850
 H        -2.443386        -1.218243         1.208622
 H        -3.014940         1.483970         0.335369
 H        -3.317469        -0.097111        -1.745478
 H        -2.934345        -3.020744        -0.461511
 H        -4.187040        -3.563283        -2.872518
 H        -3.930937        -1.805008        -3.201247
 H        -2.625950        -2.957396        -3.151342
