19
Iteration:  4192charge 0 multiplicity 1
 C         1.508172         0.257692        -0.266241
 C         0.122205         0.026826        -0.067375
 C        -1.049496        -0.356143         0.079692
 C        -2.451783        -0.522128         0.470133
 O        -3.143865         0.678661         1.081601
 C        -3.163652        -0.831639        -0.915312
 O        -4.511693        -1.467012        -0.585655
 C        -3.407391        -2.192500        -1.354377
 C        -3.645733        -2.757145        -2.751567
 H         2.202986        -0.518419         0.309214
 H         1.888671         0.231976        -1.278970
 H         1.729741         1.246266         0.161853
 H        -2.608763        -1.303718         1.215706
 H        -2.555134         1.044691         1.781956
 H        -3.182836         0.033014        -1.610139
 H        -3.013850        -2.960694        -0.694739
 H        -4.481276        -3.430749        -3.001951
 H        -3.835715        -1.881670        -3.320327
 H        -2.712869        -3.238803        -3.104401
