19
Iteration:  3230
 C         1.402616         0.011058        -0.429690
 C        -0.021876        -0.269040        -0.117765
 C        -1.221476        -0.236994         0.116746
 C        -2.550533        -0.366991         0.445887
 O        -3.182815         0.987812         0.700770
 C        -3.307180        -0.869579        -0.763369
 O        -4.483012        -1.721825        -0.446769
 C        -3.160168        -2.281139        -1.067379
 C        -3.284120        -2.525072        -2.637932
 H         1.325040         1.173176        -0.060891
 H         2.134266        -0.542931         0.154624
 H         1.730973        -0.049211        -1.449000
 H        -2.605301        -1.002639         1.374884
 H        -2.445619         1.408559         1.182126
 H        -3.434843        -0.057575        -1.467428
 H        -2.545340        -2.835888        -0.301374
 H        -3.543015        -3.607646        -3.051453
 H        -4.047275        -1.831585        -3.060425
 H        -2.318847        -2.355905        -3.211429
