19
Iteration:   595
 C         1.414317        -0.128069        -0.207110
 C        -0.075533        -0.030528        -0.201828
 C        -1.240700         0.058420         0.220255
 C        -2.754704        -0.012798         0.307381
 O        -3.302255         1.230709         0.051276
 C        -3.067165        -0.936826        -0.872298
 O        -4.395725        -1.565110        -0.777081
 C        -3.329289        -2.416290        -0.715948
 C        -3.062785        -3.317427        -1.901696
 H         1.872168         0.829212         0.091416
 H         1.865242        -0.859669         0.379518
 H         1.727689        -0.147633        -1.276592
 H        -3.003520        -0.617985         1.136793
 H        -3.309833         1.726647         0.937617
 H        -2.665450        -0.522372        -1.779225
 H        -3.033664        -2.751752         0.222242
 H        -3.815529        -4.134401        -2.005468
 H        -3.162987        -2.794704        -2.923783
 H        -2.033993        -3.843684        -2.016355
