19
Iteration:   101
 C         1.650228         0.310327        -0.137910
 C         0.155863        -0.008106         0.177354
 C        -1.050398        -0.103579         0.075196
 C        -2.674099        -0.113753         0.071681
 O        -3.349793         1.141596         0.076729
 C        -3.122603        -1.047235        -1.016162
 O        -4.523112        -1.440825        -0.888653
 C        -3.499524        -2.408947        -0.664500
 C        -3.323042        -3.499293        -1.708615
 H         2.034460         1.085764         0.503376
 H         2.337727        -0.465800         0.022063
 H         1.598363         0.575041        -1.249053
 H        -2.946668        -0.518981         1.008074
 H        -2.847884         1.764082        -0.549092
 H        -2.714295        -0.713581        -2.004661
 H        -3.372593        -2.815917         0.306163
 H        -4.116599        -4.211623        -1.584276
 H        -3.345125        -3.226787        -2.771546
 H        -2.416852        -4.109311        -1.553215
