19
Iteration:  2978charge 0 multiplicity 1
 C         1.280933         0.203842        -0.383169
 C         0.019857        -0.207103        -0.086765
 C        -1.136356        -0.259623         0.246456
 C        -2.520921        -0.371309         0.447592
 O        -3.117987         0.955379         0.785688
 C        -3.125331        -0.850803        -0.838931
 O        -4.451344        -1.588278        -0.691313
 C        -3.216211        -2.310677        -1.131424
 C        -3.508436        -2.841565        -2.490103
 H         1.847739        -0.540497        -0.758317
 H         1.237096         1.031143        -1.182251
 H         1.809269         0.814798         0.546462
 H        -2.699163        -1.213314         1.245280
 H        -2.274136         1.466610         0.846908
 H        -3.143300        -0.156772        -1.672337
 H        -2.506769        -2.803570        -0.330490
 H        -4.423576        -3.505219        -2.501115
 H        -3.713805        -1.923897        -3.138427
 H        -2.655661        -3.290529        -2.999937
