19
Iteration:  2026
 C         1.458317         0.182074        -0.494705
 C         0.078171        -0.005631        -0.096458
 C        -1.099837        -0.204298         0.226395
 C        -2.535082        -0.302698         0.384159
 O        -3.187911         0.966157         0.618092
 C        -3.223395        -0.911460        -0.890985
 O        -4.598693        -1.368832        -0.786432
 C        -3.522806        -2.356887        -0.998568
 C        -3.199989        -3.185624        -2.118553
 H         2.190008        -0.330270         0.078058
 H         1.754649         0.049790        -1.622822
 H         1.784025         1.248065        -0.392730
 H        -2.702826        -0.969504         1.237153
 H        -2.626457         1.575825         1.202907
 H        -2.737562        -0.413045        -1.737810
 H        -3.364078        -2.980918         0.026560
 H        -3.818702        -4.053811        -2.314125
 H        -3.345053        -2.680260        -3.097092
 H        -2.136005        -3.466463        -2.104941
