19
Iteration:  4882
 C         1.389746         0.290925        -0.423033
 C         0.142389        -0.167387         0.037690
 C        -1.053489        -0.291947         0.173493
 C        -2.435626        -0.606798         0.479886
 O        -3.123218         0.462279         1.232312
 C        -3.140512        -0.890387        -0.809781
 O        -4.449146        -1.326243        -0.709528
 C        -3.427152        -2.263343        -1.320673
 C        -3.602950        -2.419988        -2.815715
 H         2.112991        -0.029063         0.328537
 H         1.782227        -0.205458        -1.293209
 H         1.343675         1.401526        -0.432031
 H        -2.615337        -1.511288         1.058049
 H        -2.903325         1.315460         0.810393
 H        -2.955648        -0.138841        -1.509576
 H        -3.408114        -3.148380        -0.754624
 H        -4.314051        -3.231985        -3.087991
 H        -3.733835        -1.456140        -3.420381
 H        -2.722565        -2.884844        -3.179278
