19
Iteration:  1267charge 0 multiplicity 1
 C         1.501135         0.092399        -0.173046
 C         0.063390         0.134704        -0.132925
 C        -1.091032        -0.081662         0.214841
 C        -2.607320        -0.161249         0.274364
 O        -3.176527         1.176662         0.216811
 C        -3.222118        -0.983110        -0.904380
 O        -4.450545        -1.688969        -0.536959
 C        -3.313989        -2.492995        -0.900203
 C        -3.433519        -3.140753        -2.216056
 H         2.015648         0.542886        -0.985459
 H         1.785210         0.667092         0.673900
 H         1.876836        -0.945990        -0.194449
 H        -2.638403        -0.665011         1.249962
 H        -2.710745         1.899867         0.710625
 H        -3.317645        -0.412157        -1.827937
 H        -2.942155        -3.105484        -0.119012
 H        -4.272372        -3.860016        -2.031718
 H        -4.049375        -2.534523        -2.922966
 H        -2.580249        -3.676597        -2.671098
