19
Iteration:  1014charge 0 multiplicity 1
 C         1.319438        -0.096754        -0.324555
 C        -0.032586         0.061093        -0.012104
 C        -1.207956        -0.024688         0.180176
 C        -2.594337        -0.076963         0.346327
 O        -3.136265         1.291994         0.368048
 C        -3.168906        -0.965883        -0.882838
 O        -4.503093        -1.541314        -0.812457
 C        -3.290550        -2.461755        -0.878016
 C        -3.072934        -3.305996        -2.017416
 H         2.085614        -0.400471         0.453334
 H         1.413457        -0.708282        -1.259708
 H         1.740310         0.830017        -0.826004
 H        -3.116126        -0.522440         1.187582
 H        -4.151485         1.371393         0.196032
 H        -3.015177        -0.476905        -1.834426
 H        -3.281680        -3.023574         0.078534
 H        -3.726464        -4.136917        -2.103895
 H        -3.245322        -2.906858        -2.995095
 H        -2.004167        -3.451015        -2.008910
