19
Iteration:  1422
 C         1.597604         0.414686        -0.287890
 C         0.185367        -0.031950        -0.037200
 C        -0.984063        -0.176254         0.050216
 C        -2.561365        -0.271831         0.293878
 O        -3.140022         0.985579         0.503374
 C        -3.166253        -0.975672        -0.949521
 O        -4.559745        -1.366260        -0.864796
 C        -3.559101        -2.421298        -0.830590
 C        -3.471909        -3.309162        -2.043059
 H         2.028334        -0.481213        -0.631304
 H         1.487711         1.150297        -1.120314
 H         2.148069         0.885800         0.480547
 H        -2.724515        -1.058028         1.076525
 H        -3.618875         1.051669         1.298445
 H        -2.990910        -0.603105        -1.969719
 H        -3.322009        -2.887901         0.093644
 H        -4.413819        -3.933533        -2.106746
 H        -3.460178        -2.724221        -2.947724
 H        -2.525873        -3.924922        -2.032423
