19
Iteration:   580
 C         1.354948        -0.111950        -0.282082
 C        -0.047017        -0.036140        -0.000983
 C        -1.239581         0.163505         0.143868
 C        -2.621337        -0.089583         0.217910
 O        -3.288279         1.270809         0.090192
 C        -3.141899        -0.982675        -0.892522
 O        -4.483974        -1.560888        -0.750006
 C        -3.250484        -2.413624        -0.775929
 C        -3.032138        -3.333280        -1.921290
 H         1.863023         0.610696         0.365385
 H         1.630702        -1.119536         0.217795
 H         1.622742        -0.261574        -1.297633
 H        -2.984501        -0.378776         1.226487
 H        -3.165011         1.734302         0.970211
 H        -3.157786        -0.621666        -1.957775
 H        -3.218225        -2.951833         0.209994
 H        -3.658673        -4.201592        -1.779407
 H        -2.983443        -2.801953        -2.852186
 H        -1.978378        -3.586884        -1.718507
