19
Iteration:   719charge 0 multiplicity 1
 C         1.434249         0.314666        -0.019977
 C        -0.002564        -0.049073        -0.166966
 C        -1.166598        -0.160523         0.135500
 C        -2.547860        -0.204886         0.169290
 O        -3.181887         1.187126         0.199728
 C        -3.101228        -1.013724        -1.021453
 O        -4.413475        -1.468746        -0.751093
 C        -3.466566        -2.472937        -0.761809
 C        -3.388482        -3.379032        -1.935929
 H         1.883275         0.943580        -0.765374
 H         1.536365         0.936249         0.909577
 H         2.067110        -0.590410         0.129949
 H        -3.063052        -0.600907         1.006542
 H        -2.361589         1.776927         0.041812
 H        -2.818184        -0.514804        -1.952539
 H        -3.078257        -2.788187         0.277535
 H        -3.971826        -4.371535        -1.801506
 H        -3.546065        -2.853657        -2.913897
 H        -2.368600        -3.722767        -2.192958
