19
Iteration:  3204charge 0 multiplicity 1
 C         1.481641        -0.000255        -0.445708
 C         0.017645        -0.196178        -0.108548
 C        -1.145565        -0.241587         0.213661
 C        -2.565280        -0.323779         0.471125
 O        -3.286244         1.012534         0.627813
 C        -3.280445        -0.880275        -0.698357
 O        -4.377638        -1.809470        -0.511847
 C        -3.221562        -2.280997        -1.107784
 C        -3.395518        -2.503680        -2.615458
 H         1.802032         0.844169         0.031761
 H         2.087446        -0.861984        -0.047011
 H         1.694890         0.215421        -1.485486
 H        -2.647436        -0.893579         1.506008
 H        -2.693013         1.454902         1.265700
 H        -3.522646        -0.037704        -1.353374
 H        -2.778928        -3.077405        -0.510070
 H        -3.655760        -3.477086        -2.897415
 H        -4.044361        -1.787863        -3.090472
 H        -2.424078        -2.404475        -3.054496
