19
Iteration:  4513charge 0 multiplicity 1
 C         1.430798         0.063465        -0.361089
 C         0.032105        -0.244041        -0.087922
 C        -1.082366        -0.413422         0.267569
 C        -2.508689        -0.323314         0.445826
 O        -3.147672         0.943183         1.043528
 C        -3.372507        -0.804060        -0.828494
 O        -4.304560        -1.999973        -0.481812
 C        -3.215815        -2.154621        -1.388507
 C        -3.560922        -2.253160        -2.872505
 H         1.641260         0.813304        -1.035208
 H         1.939159         0.251657         0.561081
 H         1.873041        -0.940744        -0.756447
 H        -2.790986        -1.137878         1.242283
 H        -2.490311         1.372523         1.613962
 H        -4.015840        -0.031561        -1.170167
 H        -2.429863        -2.778985        -1.024475
 H        -3.806224        -3.314678        -3.012672
 H        -4.512903        -1.720807        -3.114821
 H        -2.943172        -1.959864        -3.650095
