19
Iteration:  1338charge 0 multiplicity 1
 C         1.612369         0.264844        -0.209195
 C         0.192775        -0.010155         0.026054
 C        -1.067601        -0.070730        -0.005237
 C        -2.532127        -0.201249         0.194295
 O        -3.231239         1.038965         0.491579
 C        -3.180826        -0.980310        -0.954079
 O        -4.525593        -1.496980        -0.646922
 C        -3.420847        -2.423560        -0.855826
 C        -3.511447        -3.263290        -2.133910
 H         2.143995         0.120504        -1.227768
 H         1.779663         1.393145         0.029656
 H         2.229077        -0.365661         0.481637
 H        -2.853746        -0.978402         0.914947
 H        -3.243285         1.596601        -0.381013
 H        -3.293939        -0.656299        -2.019432
 H        -3.123269        -3.035024         0.081435
 H        -4.202888        -4.084231        -2.058634
 H        -3.966900        -2.633614        -2.915376
 H        -2.574802        -3.691676        -2.442129
