19
Iteration:  3787
 C         1.305134         0.058975        -0.662217
 C         0.018355        -0.253722        -0.053969
 C        -1.137609        -0.234714         0.312665
 C        -2.560970        -0.360044         0.617097
 O        -3.206915         0.800725         0.917586
 C        -3.228195        -0.817647        -0.627955
 O        -4.450371        -1.605170        -0.727883
 C        -3.267155        -2.227089        -1.159739
 C        -3.226174        -2.576923        -2.682230
 H         1.626977         0.961977        -0.295391
 H         1.975869        -0.756021        -0.327854
 H         1.304398         0.029711        -1.870690
 H        -2.853865        -1.082027         1.409745
 H        -2.657512         1.506783         0.506276
 H        -3.212024        -0.024777        -1.351589
 H        -2.865626        -2.865950        -0.395412
 H        -4.026930        -3.308024        -2.774232
 H        -3.508797        -1.618298        -3.255085
 H        -2.217654        -2.935528        -2.864809
