19
Iteration:  4447charge 0 multiplicity 1
 C         1.583541        -0.025930        -0.458215
 C         0.117877        -0.092209        -0.043636
 C        -1.129179        -0.244723         0.198479
 C        -2.611105        -0.381992         0.471926
 O        -3.261575         0.812230         1.084211
 C        -3.413964        -0.838270        -0.785225
 O        -4.346937        -1.798137        -0.467935
 C        -3.295968        -2.216939        -1.365372
 C        -3.392450        -2.344420        -2.867587
 H         2.053323         0.824387        -0.812112
 H         2.086360        -0.474483         0.393293
 H         1.612694        -0.690359        -1.406959
 H        -2.661032        -1.289706         1.169336
 H        -2.593082         1.064337         1.765040
 H        -3.836823         0.021977        -1.364822
 H        -2.612889        -2.847690        -0.909417
 H        -4.046906        -3.196805        -3.170326
 H        -4.096516        -1.458252        -3.036903
 H        -2.582630        -2.342944        -3.547691
