19
Iteration:   382
 C         1.449332         0.019392        -0.007525
 C        -0.067440        -0.042617        -0.239391
 C        -1.273969         0.019565         0.222161
 C        -2.768767         0.079715         0.274577
 O        -3.191365         1.365779        -0.035233
 C        -3.199794        -0.993174        -0.833824
 O        -4.417308        -1.773025        -0.616750
 C        -3.076382        -2.401439        -0.841882
 C        -3.268318        -3.411048        -2.048115
 H         1.893009        -0.963685         0.023458
 H         1.983222         0.338866        -0.950734
 H         1.614277         0.486705         0.944327
 H        -3.162977        -0.164250         1.279498
 H        -2.280997         1.796838        -0.059792
 H        -3.116843        -0.529980        -1.828657
 H        -2.642659        -2.865216         0.100575
 H        -3.916576        -4.071965        -1.394908
 H        -3.987065        -2.882783        -2.705559
 H        -2.294629        -3.746987        -2.589373
