19
Iteration:  1185
 C         1.411106        -0.032063        -0.189507
 C        -0.015471        -0.111484        -0.150180
 C        -1.180805        -0.064910         0.071265
 C        -2.634997        -0.132574         0.224102
 O        -3.196751         1.197691         0.252163
 C        -3.313962        -0.886211        -0.875362
 O        -4.487016        -1.647492        -0.577090
 C        -3.222234        -2.321292        -0.856415
 C        -3.180398        -3.140915        -2.098877
 H         1.776161         0.989365        -0.453275
 H         1.952760        -0.439471         0.614997
 H         1.886790        -0.603544        -0.959552
 H        -2.768271        -0.753383         1.120506
 H        -3.212789         1.533306         1.226849
 H        -3.398424        -0.290075        -1.796985
 H        -2.560412        -2.783218        -0.052362
 H        -3.430811        -4.188601        -1.842035
 H        -3.647718        -2.654763        -2.953952
 H        -2.133695        -3.215102        -2.498800
