19
Iteration:  2272charge 0 multiplicity 1
 C         1.515627         0.268770        -0.234932
 C         0.154066        -0.034422        -0.213771
 C        -1.045295        -0.254688         0.096500
 C        -2.592440        -0.291909         0.338955
 O        -3.169886         1.049823         0.490265
 C        -3.330606        -0.951538        -0.850759
 O        -4.493692        -1.613221        -0.446377
 C        -3.381485        -2.385314        -1.023220
 C        -3.453206        -3.003725        -2.395482
 H         1.836296         1.232042        -0.842290
 H         1.797682         0.396872         0.797565
 H         2.047195        -0.560545        -0.682369
 H        -2.768445        -0.965658         1.161973
 H        -2.684158         1.463367         1.229843
 H        -3.226191        -0.200366        -1.670324
 H        -2.770977        -3.111688        -0.241032
 H        -4.081969        -3.885307        -2.603046
 H        -3.660594        -2.141189        -3.125355
 H        -2.386504        -3.266265        -2.615312
