19
Iteration:  1036charge 0 multiplicity 1
 C         1.372599        -0.125325        -0.416987
 C        -0.066149         0.044511        -0.042934
 C        -1.278151         0.017075         0.194123
 C        -2.694459        -0.127110         0.369843
 O        -3.235614         1.298343         0.405839
 C        -3.122848        -0.903241        -0.806704
 O        -4.423826        -1.568310        -0.825273
 C        -3.258215        -2.403344        -0.794160
 C        -3.078941        -3.327880        -2.102734
 H         1.894875        -0.298658         0.577966
 H         1.566988        -1.127279        -0.909156
 H         2.086729         0.505340        -1.005306
 H        -3.101716        -0.479312         1.323881
 H        -3.424123         1.653857        -0.429854
 H        -2.789987        -0.452156        -1.729016
 H        -3.185889        -2.826881         0.223682
 H        -3.765489        -4.138308        -2.200797
 H        -3.291133        -2.852656        -3.049999
 H        -2.039097        -3.625018        -2.177789
