19
Iteration:  2741charge 0 multiplicity 1
 C         1.469494         0.322583        -0.213439
 C         0.084526        -0.083714        -0.212166
 C        -1.069827        -0.236570         0.225466
 C        -2.556670        -0.430262         0.382716
 O        -3.095218         0.869108         0.667157
 C        -3.201993        -0.938544        -0.838225
 O        -4.432598        -1.491896        -0.605544
 C        -3.404566        -2.442010        -1.026765
 C        -3.501390        -2.822000        -2.469984
 H         1.384964         1.415655        -0.349938
 H         2.019878        -0.065955         0.603988
 H         1.918891         0.059322        -1.144333
 H        -2.960246        -1.031346         1.272514
 H        -2.723476         1.474713        -0.011119
 H        -3.126855        -0.310849        -1.759444
 H        -3.168011        -3.124467        -0.244274
 H        -4.368360        -3.584858        -2.583099
 H        -3.810073        -1.977988        -3.077818
 H        -2.658293        -3.216049        -3.130964
