19
Iteration:  1377
 C         1.533683         0.274835        -0.194699
 C        -0.019078         0.207861        -0.231224
 C        -1.127469        -0.094720         0.071101
 C        -2.512660        -0.343232         0.304506
 O        -3.055730         0.979036         0.457122
 C        -3.081636        -0.945129        -0.923457
 O        -4.546177        -1.400858        -0.763531
 C        -3.457270        -2.367530        -0.897979
 C        -3.530920        -3.412427        -2.099187
 H         2.033490        -0.424727        -0.792051
 H         1.940192         1.255260        -0.219167
 H         1.655331        -0.011946         0.847750
 H        -2.585318        -0.949572         1.239113
 H        -2.535923         1.340800         1.130165
 H        -2.696687        -0.425466        -1.789508
 H        -3.344481        -2.821393         0.036101
 H        -4.253806        -4.264326        -1.889010
 H        -3.868676        -2.890719        -2.997040
 H        -2.481795        -3.766024        -2.311386
