19
Iteration:   702charge 0 multiplicity 1
 C         1.474168         0.232851        -0.078121
 C         0.014752         0.112210        -0.073716
 C        -1.153678        -0.125808         0.147193
 C        -2.677982        -0.170483         0.220252
 O        -3.106272         1.147551         0.178757
 C        -3.120070        -0.993367        -0.944320
 O        -4.551970        -1.515933        -0.849067
 C        -3.345976        -2.406942        -0.788581
 C        -3.338791        -3.418384        -1.933133
 H         1.686169         0.964609        -0.897164
 H         1.935022         0.647887         0.875710
 H         1.859645        -0.791956        -0.152731
 H        -2.855644        -0.745798         1.202587
 H        -2.328686         1.813066         0.138651
 H        -2.769130        -0.575251        -1.958330
 H        -3.261769        -3.045565         0.072240
 H        -3.965486        -4.166529        -1.568964
 H        -3.768167        -2.968256        -2.804852
 H        -2.344645        -3.871140        -2.078326
