19
Iteration:  1455
 C         1.474091         0.392519        -0.363168
 C         0.145657        -0.067400        -0.009615
 C        -1.053462        -0.112304         0.185795
 C        -2.492771        -0.268165         0.351396
 O        -3.130558         0.954343         0.459043
 C        -3.032010        -1.016716        -0.931960
 O        -4.516593        -1.310209        -0.741236
 C        -3.543373        -2.382124        -0.910330
 C        -3.487400        -3.324568        -2.127360
 H         2.098355        -0.465693        -0.345897
 H         1.369524         0.641081        -1.466386
 H         1.941984         1.158619         0.198174
 H        -2.534459        -0.998959         1.198405
 H        -4.098354         1.023716         0.386092
 H        -2.807441        -0.465307        -1.877814
 H        -3.437657        -2.933943        -0.022255
 H        -4.428465        -3.968891        -2.209271
 H        -3.336078        -2.779086        -3.056901
 H        -2.642586        -4.043858        -1.908033
