19
Iteration:  1980charge 0 multiplicity 1
 C         1.349962         0.112010        -0.537895
 C         0.034913        -0.065693        -0.095016
 C        -1.160118        -0.164722         0.210135
 C        -2.593848        -0.282521         0.429055
 O        -3.119687         1.108111         0.556704
 C        -3.113619        -1.024307        -0.825536
 O        -4.566260        -1.418712        -0.804660
 C        -3.422140        -2.372770        -0.850307
 C        -3.160546        -3.091873        -2.218488
 H         2.004810        -0.835704        -0.418417
 H         1.361133         0.496929        -1.617375
 H         1.902144         0.931922         0.022240
 H        -2.853213        -0.696060         1.367006
 H        -3.310740         1.150867         1.509761
 H        -2.852927        -0.478403        -1.789656
 H        -3.363996        -2.971132         0.209160
 H        -3.684436        -4.044183        -2.425113
 H        -3.512238        -2.525477        -3.168213
 H        -2.042742        -3.255495        -2.349943
