19
Iteration:  1896
 C         1.399217        -0.131105        -0.456371
 C         0.037141        -0.034645         0.059173
 C        -1.143023         0.017780         0.125536
 C        -2.607206        -0.083072         0.258250
 O        -3.297658         1.116998         0.535786
 C        -3.328215        -0.898817        -0.894514
 O        -4.400477        -1.692608        -0.446730
 C        -3.220049        -2.369200        -0.959604
 C        -3.208313        -3.008632        -2.389161
 H         1.387015        -0.857833        -1.239657
 H         1.640871         0.764631        -1.085374
 H         2.110588        -0.368986         0.351012
 H        -2.665735        -0.749038         1.200215
 H        -2.643191         1.701474         1.010877
 H        -3.563456        -0.394700        -1.840665
 H        -2.809376        -2.893810        -0.202119
 H        -3.797887        -3.901729        -2.133653
 H        -3.544455        -2.414074        -3.230321
 H        -2.212912        -3.460264        -2.447654
