19
Iteration:  1011
 C         1.343238        -0.065211        -0.344083
 C        -0.013410         0.038501        -0.001286
 C        -1.226948        -0.018932         0.191416
 C        -2.614776        -0.120277         0.332979
 O        -3.138338         1.294242         0.345660
 C        -3.173325        -0.959139        -0.888826
 O        -4.508940        -1.547547        -0.812799
 C        -3.287292        -2.438410        -0.865958
 C        -3.091741        -3.295522        -2.010901
 H         2.120612        -0.471639         0.450313
 H         1.467966        -0.709119        -1.195286
 H         1.861860         0.851859        -0.772343
 H        -3.099393        -0.527487         1.202719
 H        -4.117990         1.312302         0.381642
 H        -3.026914        -0.434323        -1.833211
 H        -3.324823        -2.939097         0.113305
 H        -3.674137        -4.256682        -2.141301
 H        -3.239312        -2.851151        -3.022172
 H        -1.947471        -3.478924        -1.956485
