19
Iteration:  3906charge 0 multiplicity 1
 C         1.371827        -0.086872        -0.477363
 C         0.011722        -0.193475        -0.159475
 C        -1.141974        -0.034253         0.151158
 C        -2.531181        -0.353501         0.453611
 O        -3.204692         0.702984         1.158618
 C        -3.319238        -0.743193        -0.880730
 O        -4.481778        -1.571561        -0.679819
 C        -3.230737        -2.188729        -1.141534
 C        -3.223494        -2.674924        -2.640418
 H         1.286837         0.736673        -1.220265
 H         1.885471         0.369204         0.348543
 H         1.774320        -1.052762        -0.854273
 H        -2.717192        -1.149854         1.147344
 H        -2.660718         1.495338         1.220102
 H        -3.483138        -0.002652        -1.689239
 H        -2.583369        -2.757177        -0.502646
 H        -3.418953        -3.755125        -2.670740
 H        -4.136838        -2.152244        -3.124886
 H        -2.317970        -2.428727        -3.237848
