19
Iteration:  1216
 C         1.491916         0.060095        -0.208018
 C         0.112821        -0.131639         0.014365
 C        -1.115934        -0.131901         0.041656
 C        -2.662543        -0.119599         0.151581
 O        -3.185746         1.286663         0.324643
 C        -3.299426        -0.939184        -0.874716
 O        -4.518306        -1.682926        -0.489297
 C        -3.251784        -2.367424        -0.891263
 C        -3.279687        -3.158790        -2.200390
 H         1.685994         0.948172        -0.846434
 H         2.195019         0.129710         0.775952
 H         1.820838        -0.749962        -0.857898
 H        -2.761850        -0.517104         1.189322
 H        -4.098291         1.371684         0.124845
 H        -3.397666        -0.305598        -1.795058
 H        -2.640293        -2.834596        -0.095329
 H        -3.690368        -4.141132        -2.095053
 H        -3.661472        -2.668409        -3.050068
 H        -2.240720        -3.308467        -2.394933
