19
Iteration:  1217charge 0 multiplicity 1
 C         1.486801         0.055139        -0.200310
 C         0.126149        -0.122372         0.013351
 C        -1.117224        -0.132955         0.040156
 C        -2.657843        -0.123784         0.149473
 O        -3.185153         1.288914         0.330954
 C        -3.298873        -0.939084        -0.868930
 O        -4.516490        -1.682697        -0.486945
 C        -3.246215        -2.370543        -0.898237
 C        -3.290389        -3.159469        -2.205705
 H         1.648472         0.953614        -0.854557
 H         2.152171         0.162089         0.743085
 H         1.778120        -0.753550        -0.851904
 H        -2.758648        -0.491175         1.181582
 H        -4.105947         1.391989         0.045562
 H        -3.365835        -0.323928        -1.791069
 H        -2.647531        -2.853420        -0.068851
 H        -3.708117        -4.154253        -2.121394
 H        -3.678360        -2.693042        -3.076698
 H        -2.225310        -3.298256        -2.347207
