19
Iteration:   373
 C         1.378682         0.066460        -0.012479
 C        -0.067861        -0.018734        -0.182156
 C        -1.215962        -0.018221         0.179213
 C        -2.729798         0.002109         0.230258
 O        -3.198614         1.403249        -0.036461
 C        -3.171147        -0.923947        -0.816781
 O        -4.430271        -1.717393        -0.606583
 C        -3.089414        -2.456833        -0.854639
 C        -3.292454        -3.425068        -2.004940
 H         1.589245        -1.030600        -0.055877
 H         1.963477         0.591745        -0.805984
 H         1.755467         0.227069         0.953594
 H        -2.990053        -0.312417         1.253070
 H        -2.297166         1.820309         0.073834
 H        -3.122518        -0.422281        -1.837408
 H        -2.597677        -2.892457        -0.005617
 H        -3.715315        -4.408411        -1.738038
 H        -3.942580        -3.084245        -2.811795
 H        -2.440430        -4.037211        -2.497497
