19
Iteration:  4050
 C         1.454312         0.235101        -0.167752
 C         0.111457        -0.120090        -0.044065
 C        -1.054769        -0.296478         0.148986
 C        -2.480468        -0.464176         0.430809
 O        -3.032558         0.903918         0.806288
 C        -3.223854        -0.902908        -0.817791
 O        -4.402594        -1.761826        -0.496978
 C        -3.382542        -2.256633        -1.340674
 C        -3.727425        -2.549332        -2.763931
 H         1.921023        -0.144065        -1.070828
 H         1.440890         1.286755        -0.410001
 H         1.986061         0.025210         0.791993
 H        -2.697590        -1.241669         1.235922
 H        -2.609208         0.974442         1.689549
 H        -3.408699        -0.089034        -1.452130
 H        -2.676760        -2.873699        -0.866970
 H        -4.631359        -3.197781        -2.880179
 H        -3.919250        -1.619500        -3.258001
 H        -2.903548        -3.039206        -3.345126
