19
Iteration:  1527charge 0 multiplicity 1
 C         1.543039         0.236780        -0.416013
 C         0.090600         0.063729        -0.074666
 C        -1.061705        -0.056242         0.193109
 C        -2.471536        -0.214650         0.396612
 O        -3.239401         0.990111         0.563916
 C        -3.055598        -1.052672        -0.821589
 O        -4.465938        -1.298971        -0.719945
 C        -3.513346        -2.440730        -0.946537
 C        -3.473009        -3.322712        -2.236956
 H         2.224810        -0.140252         0.453546
 H         1.621074        -0.358033        -1.296157
 H         1.772623         1.355873        -0.576619
 H        -2.734080        -1.067244         1.105450
 H        -3.696012         1.216685        -0.241287
 H        -2.817474        -0.768092        -1.841891
 H        -3.532350        -3.155355        -0.053962
 H        -4.209976        -4.105476        -2.207150
 H        -3.619367        -2.638789        -3.054537
 H        -2.529347        -3.825568        -2.192796
