19
Iteration:  4225
 C         1.468506         0.285725        -0.421098
 C         0.174452        -0.081796         0.061648
 C        -1.024434        -0.267082         0.268390
 C        -2.444048        -0.576510         0.491120
 O        -3.058420         0.645641         0.951599
 C        -3.216084        -0.825322        -0.869990
 O        -4.619057        -1.566349        -0.748177
 C        -3.446017        -2.240020        -1.264244
 C        -3.563325        -2.581196        -2.666822
 H         2.242128        -0.101406         0.324215
 H         1.576139         0.008652        -1.463717
 H         1.472731         1.383955        -0.359300
 H        -2.654095        -1.344194         1.196439
 H        -2.554971         0.975407         1.716152
 H        -3.048898         0.072292        -1.479553
 H        -2.996899        -2.879519        -0.506320
 H        -4.572243        -2.955089        -2.945081
 H        -3.319489        -1.647833        -3.135605
 H        -2.803185        -3.247997        -3.060409
