19
Iteration:   549charge 0 multiplicity 1
 C         1.486678        -0.177121        -0.297902
 C         0.049224         0.024068         0.198592
 C        -1.209602        -0.013053         0.021365
 C        -2.734524        -0.022436         0.183365
 O        -3.413183         1.303221         0.137019
 C        -3.245827        -0.879071        -0.986070
 O        -4.478654        -1.686644        -0.703511
 C        -3.258219        -2.293370        -0.793742
 C        -2.987051        -3.324187        -1.855985
 H         2.326418         0.166772         0.325304
 H         1.582388        -1.239454        -0.100137
 H         1.624558         0.157339        -1.315601
 H        -2.979892        -0.622249         1.087405
 H        -2.755750         1.872310         0.527138
 H        -3.431877        -0.371341        -1.971201
 H        -3.032432        -2.626350         0.194514
 H        -3.449019        -4.329646        -1.723578
 H        -3.124227        -3.062602        -2.954604
 H        -1.823175        -3.454894        -1.935661
