19
Iteration:  2535
 C         1.363251        -0.020988        -0.450486
 C        -0.032299        -0.119347        -0.167148
 C        -1.164397        -0.116469         0.346909
 C        -2.609005        -0.219281         0.384011
 O        -3.287901         1.038730         0.680190
 C        -3.200587        -0.821316        -0.861494
 O        -4.335626        -1.631953        -0.555937
 C        -3.185505        -2.301020        -1.096305
 C        -3.327514        -2.971033        -2.453673
 H         2.045183        -0.752593         0.167108
 H         1.670203        -0.046521        -1.461707
 H         1.649122         0.940788        -0.157915
 H        -2.997477        -0.897626         1.225577
 H        -2.433849         1.465958         0.846066
 H        -3.326971        -0.066182        -1.663458
 H        -2.668542        -2.820405        -0.280606
 H        -3.918536        -3.836170        -2.214954
 H        -3.895284        -2.392730        -3.171954
 H        -2.386549        -3.153258        -2.969752
