19
Iteration:  3445
 C         1.444738         0.364385        -0.358888
 C         0.185058        -0.180205        -0.078908
 C        -1.009892        -0.314239         0.123196
 C        -2.478643        -0.505597         0.407613
 O        -3.158794         0.816446         0.908978
 C        -3.217769        -0.776543        -0.851754
 O        -4.563745        -1.424969        -0.624673
 C        -3.388612        -2.297989        -1.175198
 C        -3.538018        -2.908753        -2.618064
 H         1.861539         0.005739        -1.179286
 H         1.510088         1.444463        -0.433425
 H         2.155986         0.051152         0.527487
 H        -2.691540        -1.266461         1.211743
 H        -2.559433         1.256081         1.551571
 H        -3.119669         0.031188        -1.569088
 H        -3.080399        -3.090811        -0.524536
 H        -4.359051        -3.637080        -2.721148
 H        -3.650505        -2.165455        -3.328621
 H        -2.580249        -3.355025        -2.732336
