19
Iteration:  3059charge 0 multiplicity 1
 C         1.500337        -0.024187        -0.292232
 C         0.057342         0.090464        -0.112446
 C        -1.117709        -0.142507        -0.092077
 C        -2.497791        -0.336063         0.396998
 O        -3.153084         0.984592         0.804355
 C        -3.409964        -0.946547        -0.788356
 O        -4.545903        -1.723255        -0.520337
 C        -3.283380        -2.346366        -1.109481
 C        -3.320729        -2.679787        -2.570212
 H         1.945938        -0.773680         0.498050
 H         1.700161        -0.380290        -1.300599
 H         1.994182         0.964285         0.059768
 H        -2.447048        -1.183456         1.074816
 H        -2.556090         1.352127         1.497104
 H        -3.477423        -0.197751        -1.669386
 H        -3.002645        -3.116218        -0.326486
 H        -3.616134        -3.639975        -2.831295
 H        -4.146264        -2.066182        -2.833289
 H        -2.462466        -2.407056        -3.173430
