19
Iteration:  4213charge 0 multiplicity 1
 C         1.527688         0.306017        -0.342305
 C         0.116286        -0.052828         0.035041
 C        -1.055918        -0.316629         0.181127
 C        -2.473545        -0.537743         0.478037
 O        -3.078081         0.605216         0.945850
 C        -3.259353        -0.829851        -0.761397
 O        -4.528096        -1.500026        -0.751588
 C        -3.386441        -2.185333        -1.234092
 C        -3.594402        -2.619069        -2.715536
 H         2.460892        -0.242282         0.064296
 H         1.648897         0.033459        -1.357314
 H         1.737124         1.327137        -0.290194
 H        -2.496823        -1.385182         1.102645
 H        -2.586061         0.966825         1.696816
 H        -3.473914        -0.081098        -1.457722
 H        -3.109318        -3.072862        -0.649223
 H        -4.599891        -3.068800        -2.771453
 H        -3.617344        -1.861177        -3.433720
 H        -2.863594        -3.367784        -2.970826
