19
Iteration:  2129charge 0 multiplicity 1
 C         1.615165         0.254652        -0.263580
 C         0.212619         0.121476         0.090292
 C        -1.005452        -0.019558        -0.044348
 C        -2.457588        -0.271804         0.267443
 O        -3.200367         0.908240         0.565607
 C        -3.203899        -1.062233        -0.891152
 O        -4.574855        -1.490212        -0.528233
 C        -3.472049        -2.464089        -0.947667
 C        -3.557926        -3.069362        -2.374448
 H         2.164222         0.679141         0.702540
 H         1.970202        -0.773416        -0.309187
 H         1.731746         0.891992        -1.165157
 H        -2.637384        -0.902352         1.256469
 H        -3.501447         1.067785        -0.319098
 H        -3.348984        -0.396956        -1.802138
 H        -3.063862        -3.307534        -0.332505
 H        -4.135007        -4.033448        -2.347377
 H        -3.954263        -2.324824        -3.083599
 H        -2.499068        -3.335234        -2.507890
