19
Iteration:  4873
 C         1.411136         0.307604        -0.458802
 C         0.077727        -0.195277        -0.005893
 C        -1.073555        -0.410889         0.238577
 C        -2.417919        -0.584866         0.530997
 O        -3.122792         0.459477         1.202711
 C        -3.099750        -0.917674        -0.839821
 O        -4.469582        -1.307648        -0.763389
 C        -3.466091        -2.226515        -1.330281
 C        -3.553533        -2.393013        -2.752024
 H         2.067531         0.065096         0.337769
 H         1.799519         0.048334        -1.432860
 H         1.307837         1.433949        -0.356464
 H        -2.449704        -1.431582         1.405591
 H        -2.943892         1.355812         0.870357
 H        -2.990250        -0.212402        -1.564660
 H        -3.115254        -3.042604        -0.689591
 H        -4.289564        -3.187645        -3.044735
 H        -3.929652        -1.559691        -3.328931
 H        -2.619772        -2.754544        -3.077308
