19
Iteration:   480charge 0 multiplicity 1
 C         1.386857        -0.112343        -0.076113
 C        -0.119505        -0.144568        -0.227295
 C        -1.263931         0.015900         0.063802
 C        -2.735865         0.073142         0.215166
 O        -3.249727         1.447540         0.133676
 C        -3.285190        -0.933351        -0.829993
 O        -4.415018        -1.726680        -0.624037
 C        -3.148231        -2.476902        -0.716079
 C        -2.980803        -3.307640        -2.037833
 H         1.636724        -0.483117         0.923942
 H         1.782395        -1.092597        -0.548868
 H         1.867782         0.823173        -0.285078
 H        -3.083478        -0.090873         1.248389
 H        -2.951089         1.741402        -0.789830
 H        -3.170016        -0.425740        -1.814956
 H        -2.654720        -3.022070         0.178598
 H        -3.470818        -4.303074        -1.831562
 H        -3.662995        -2.717190        -2.668427
 H        -2.014104        -3.205086        -2.557997
