19
Iteration:  4941
 C         1.618041         0.113535        -0.187132
 C         0.133529         0.163120        -0.072665
 C        -1.063065        -0.161279         0.075345
 C        -2.433121        -0.541715         0.444513
 O        -3.072718         0.391411         1.291561
 C        -3.252113        -0.793067        -0.914392
 O        -4.495328        -1.547149        -0.628827
 C        -3.368340        -2.177856        -1.452100
 C        -3.810049        -2.521544        -2.868121
 H         1.860003         0.329359         0.869119
 H         2.150177        -0.746849        -0.622118
 H         2.072937         1.012281        -0.668919
 H        -2.490069        -1.612898         1.056044
 H        -2.743530         1.276018         1.086306
 H        -3.501037         0.160666        -1.465154
 H        -2.691467        -2.970613        -0.893191
 H        -4.774486        -3.042571        -2.932476
 H        -3.913912        -1.658487        -3.463387
 H        -2.884842        -3.129824        -3.135660
