19
Iteration:   781
 C         1.588151         0.378819         0.061250
 C         0.101709         0.249610         0.115551
 C        -1.041844        -0.156482         0.030076
 C        -2.540396        -0.214330         0.040086
 O        -3.015910         1.149234         0.213752
 C        -3.264639        -1.061273        -0.967257
 O        -4.627809        -1.522425        -0.674090
 C        -3.433694        -2.556925        -0.833424
 C        -3.506358        -3.426258        -2.071391
 H         2.079795         0.046626        -0.973074
 H         1.850876         1.355807         0.357344
 H         2.121537        -0.400600         0.714637
 H        -2.629527        -0.561222         1.142060
 H        -3.294317         1.713840        -0.595620
 H        -3.090631        -0.709158        -1.997483
 H        -2.992977        -2.976404         0.027431
 H        -4.340122        -4.105108        -1.864297
 H        -3.773927        -2.824650        -2.974795
 H        -2.575773        -4.000164        -2.258785
