19
Iteration:  2642
 C         1.576543         0.147203        -0.209151
 C         0.016677        -0.011521        -0.198269
 C        -1.208355        -0.290732        -0.010032
 C        -2.583730        -0.279699         0.369895
 O        -3.221321         0.940848         0.697379
 C        -3.218690        -0.843621        -0.833000
 O        -4.395526        -1.647780        -0.525171
 C        -3.286514        -2.301495        -1.094926
 C        -3.460238        -2.856262        -2.426097
 H         1.899404         0.672079         0.752817
 H         2.066082        -0.811788        -0.309010
 H         1.883614         0.845293        -0.980734
 H        -2.736287        -1.043382         1.160206
 H        -2.506751         1.588733         0.812678
 H        -3.267507        -0.314959        -1.744988
 H        -2.968770        -3.057286        -0.506205
 H        -3.868611        -3.899729        -2.354649
 H        -4.175662        -2.235294        -2.969684
 H        -2.595932        -3.086216        -3.071165
