19
Iteration:  1457charge 0 multiplicity 1
 C         1.473822         0.388123        -0.357641
 C         0.146994        -0.048176        -0.020132
 C        -1.084418        -0.127181         0.196579
 C        -2.493097        -0.277420         0.350745
 O        -3.137267         0.965139         0.469661
 C        -3.029154        -1.018495        -0.945302
 O        -4.496203        -1.314906        -0.735434
 C        -3.527119        -2.390006        -0.914221
 C        -3.506285        -3.315217        -2.124956
 H         2.134933        -0.436976        -0.402816
 H         1.442940         0.554977        -1.491270
 H         1.957425         1.162194         0.166732
 H        -2.565675        -0.965375         1.230885
 H        -4.043984         1.025287         0.277568
 H        -2.765482        -0.444020        -1.886319
 H        -3.546223        -2.970256         0.034095
 H        -4.368575        -3.983293        -2.200518
 H        -3.298038        -2.747781        -3.046722
 H        -2.682318        -4.009336        -1.930747
