19
Iteration:   993charge 0 multiplicity 1
 C         1.479093        -0.024179        -0.346260
 C         0.036213        -0.036694         0.002682
 C        -1.185013        -0.073879         0.231147
 C        -2.674498        -0.093356         0.275417
 O        -3.211057         1.148392         0.251531
 C        -3.241655        -0.882729        -0.920515
 O        -4.519362        -1.531362        -0.815618
 C        -3.382589        -2.389346        -0.784596
 C        -3.038548        -3.261434        -1.983792
 H         2.084246        -0.380920         0.488238
 H         1.707438        -0.359727        -1.409373
 H         1.693233         1.062246        -0.447705
 H        -3.017897        -0.729481         1.156776
 H        -3.714164         1.457928         1.007359
 H        -2.946435        -0.540561        -1.905297
 H        -2.891339        -2.798894         0.114532
 H        -3.857949        -3.957090        -1.907457
 H        -3.375726        -2.839986        -2.926448
 H        -2.023559        -3.519849        -2.128342
