19
Iteration:   332
 C         1.527544         0.136556        -0.062681
 C         0.073419         0.026364         0.207528
 C        -1.122371        -0.029928        -0.004160
 C        -2.532779        -0.180588         0.024011
 O        -3.284781         1.232295        -0.026829
 C        -3.397460        -0.995810        -1.013322
 O        -4.569494        -1.605259        -0.550370
 C        -3.250066        -2.402922        -0.767963
 C        -3.194417        -3.321733        -1.924986
 H         1.858991        -0.741806        -0.748054
 H         1.670341         0.973817        -0.760524
 H         2.102644        -0.261624         0.901821
 H        -2.909987        -0.508038         1.019844
 H        -2.615260         1.882492         0.317654
 H        -3.399357        -0.673241        -2.115122
 H        -2.910120        -2.623742         0.241803
 H        -3.712181        -4.296690        -1.679282
 H        -3.643114        -2.754957        -2.746333
 H        -2.139222        -3.684604        -1.994842
