19
Iteration:  4429
 C         1.491137        -0.099339        -0.432967
 C         0.095869        -0.094095        -0.137281
 C        -1.110223        -0.157845         0.139789
 C        -2.524391        -0.361103         0.495787
 O        -3.264915         0.729750         1.120105
 C        -3.335236        -0.833178        -0.726926
 O        -4.471054        -1.795215        -0.565491
 C        -3.190073        -2.176008        -1.296332
 C        -3.459967        -2.334570        -2.848621
 H         1.751389         1.003061        -0.466645
 H         2.144214        -0.542240         0.321593
 H         1.763830        -0.495856        -1.413752
 H        -2.550878        -1.152897         1.200769
 H        -2.658692         1.318378         1.620010
 H        -3.485478        -0.081100        -1.441940
 H        -2.632581        -2.963617        -0.798479
 H        -3.925762        -3.262915        -3.077530
 H        -3.950812        -1.511157        -3.249213
 H        -2.400840        -2.491063        -3.149938
