19
Iteration:  2097
 C         1.500931         0.252767        -0.305968
 C         0.132840         0.082624        -0.078149
 C        -1.046302        -0.114358         0.149943
 C        -2.513456        -0.254660         0.349257
 O        -3.147647         0.965105         0.650268
 C        -3.197582        -0.958135        -0.913526
 O        -4.495921        -1.482578        -0.637469
 C        -3.362716        -2.411286        -1.034498
 C        -3.538735        -3.174833        -2.283493
 H         2.060350         0.291927         0.711985
 H         1.929610        -0.610540        -0.773132
 H         1.870287         1.080840        -0.916234
 H        -2.823051        -1.163287         0.975006
 H        -3.534176         1.325233        -0.198276
 H        -3.274819        -0.314793        -1.843398
 H        -3.025560        -2.941230        -0.174645
 H        -4.437861        -3.817459        -2.248893
 H        -3.629109        -2.680272        -3.265973
 H        -2.641714        -3.831157        -2.344656
