19
Iteration:  4779charge 0 multiplicity 1
 C         1.326041         0.291676        -0.625082
 C         0.040842        -0.190397        -0.045131
 C        -1.064330        -0.486201         0.351917
 C        -2.515356        -0.605908         0.550727
 O        -3.025185         0.539703         1.334354
 C        -3.232140        -0.756817        -0.777223
 O        -4.562840        -1.408043        -0.928946
 C        -3.483708        -2.129260        -1.311951
 C        -3.300269        -2.456551        -2.705250
 H         2.005150        -0.587379        -0.375500
 H         1.381828         0.696562        -1.681508
 H         1.792623         0.990930         0.085329
 H        -2.617620        -1.474979         1.092506
 H        -2.287040         1.186725         1.293420
 H        -3.024974         0.152965        -1.485038
 H        -3.192054        -2.927109        -0.565292
 H        -4.137018        -3.156664        -2.912344
 H        -3.556444        -1.795111        -3.509815
 H        -2.322423        -3.089808        -2.942661
