19
Iteration:   462charge 0 multiplicity 1
 C         1.466749        -0.187331        -0.095019
 C        -0.011183        -0.044868        -0.037768
 C        -1.219339         0.027434         0.048453
 C        -2.728482         0.037173         0.182563
 O        -3.255771         1.366804         0.050331
 C        -3.307750        -0.927281        -0.856910
 O        -4.532278        -1.842769        -0.547121
 C        -3.182959        -2.344384        -0.774041
 C        -3.028200        -3.203677        -2.033296
 H         1.870945        -0.529401         0.887568
 H         1.896870        -0.658776        -0.988307
 H         1.796945         0.851558        -0.290488
 H        -2.912832        -0.399577         1.172947
 H        -3.083336         1.540470        -0.921859
 H        -3.393329        -0.458383        -1.884479
 H        -2.812703        -2.830416         0.101265
 H        -3.370598        -4.209653        -1.668257
 H        -3.504943        -2.702230        -2.898713
 H        -1.864759        -3.148022        -2.057786
