19
Iteration:  2847
 C         1.493023         0.229661        -0.316035
 C         0.080508        -0.003311        -0.173185
 C        -1.077286        -0.118041         0.190091
 C        -2.457909        -0.453516         0.367950
 O        -3.193526         0.717063         0.990523
 C        -3.159294        -0.789547        -0.923131
 O        -4.488375        -1.362971        -0.810828
 C        -3.395504        -2.205587        -1.140960
 C        -3.516787        -3.144410        -2.397793
 H         1.808753         0.573851        -1.239421
 H         1.768695         1.124214         0.296829
 H         2.166929        -0.708962        -0.121976
 H        -2.443336        -1.109126         1.155017
 H        -3.086297         1.560838         0.508701
 H        -3.000029        -0.098095        -1.710491
 H        -3.238709        -2.989240        -0.352456
 H        -4.164322        -3.930651        -2.129024
 H        -4.004212        -2.636599        -3.190645
 H        -2.606961        -3.518012        -2.647588
