19
Iteration:  3048
 C         1.487110         0.011178        -0.287455
 C         0.061117         0.080268        -0.061591
 C        -1.144697        -0.115696        -0.044419
 C        -2.504206        -0.368831         0.387539
 O        -3.067456         0.944251         0.770881
 C        -3.377705        -0.898089        -0.778983
 O        -4.606580        -1.717493        -0.547839
 C        -3.314900        -2.377005        -1.078288
 C        -3.341402        -2.724730        -2.596819
 H         2.008029        -0.948786         0.220603
 H         1.711163        -0.057837        -1.367733
 H         2.111930         1.007991        -0.148023
 H        -2.639280        -0.925453         1.310174
 H        -2.648860         1.344373         1.563752
 H        -3.617573        -0.149227        -1.626527
 H        -2.602944        -2.923954        -0.333379
 H        -3.577135        -3.701880        -2.866243
 H        -4.054081        -2.065637        -3.029731
 H        -2.406896        -2.384602        -3.044200
