19
Iteration:  2146
 C         1.637239         0.265576        -0.154135
 C         0.188555         0.117839        -0.042420
 C        -1.023913        -0.074912        -0.031551
 C        -2.461061        -0.265044         0.222488
 O        -3.231950         0.922208         0.544392
 C        -3.216409        -1.055992        -0.802354
 O        -4.487429        -1.587143        -0.581142
 C        -3.480549        -2.475467        -0.936325
 C        -3.601203        -2.989754        -2.326860
 H         2.099631         0.883389         0.506091
 H         2.256131        -0.674948        -0.144778
 H         1.864498         0.676437        -1.152224
 H        -2.486672        -0.913118         1.136743
 H        -3.497996         1.472253        -0.186253
 H        -2.977718        -0.661011        -1.763513
 H        -3.243029        -3.049823         0.007771
 H        -4.168752        -3.901487        -2.502104
 H        -4.268077        -2.275915        -2.813570
 H        -2.687162        -3.068923        -2.919389
