19
Iteration:  3049charge 0 multiplicity 1
 C         1.485438         0.011152        -0.284270
 C         0.063473         0.086181        -0.066405
 C        -1.149495        -0.119119        -0.053450
 C        -2.488287        -0.371333         0.395228
 O        -3.077786         0.953555         0.775689
 C        -3.382092        -0.901356        -0.787097
 O        -4.607933        -1.716615        -0.543804
 C        -3.305463        -2.380954        -1.077242
 C        -3.332621        -2.724568        -2.593500
 H         2.045524        -0.974864         0.248532
 H         1.717620        -0.110416        -1.380581
 H         2.080673         0.983019        -0.131686
 H        -2.637453        -0.968827         1.261178
 H        -2.652297         1.366568         1.563116
 H        -3.628012        -0.156657        -1.632311
 H        -2.651889        -2.932064        -0.331935
 H        -3.609887        -3.681053        -2.886296
 H        -4.085057        -2.047095        -3.004238
 H        -2.414905        -2.360739        -3.087353
