19
Iteration:  3829charge 0 multiplicity 1
 C         1.337462        -0.075667        -0.617532
 C        -0.099061        -0.121646        -0.214096
 C        -1.156603        -0.187083         0.354799
 C        -2.594894        -0.322357         0.596717
 O        -3.222884         0.811629         1.078214
 C        -3.122395        -0.809449        -0.759034
 O        -4.440381        -1.610535        -0.673508
 C        -3.239735        -2.251642        -1.147976
 C        -3.205356        -2.608549        -2.689858
 H         1.680431         0.932952        -0.793634
 H         1.828007        -0.668839         0.139599
 H         1.374997        -0.572686        -1.602186
 H        -2.653928        -0.986631         1.422648
 H        -3.214541         1.477205         0.355864
 H        -3.164201        -0.019741        -1.580054
 H        -2.834960        -3.034240        -0.468343
 H        -4.097905        -3.067393        -3.160535
 H        -3.210465        -1.592043        -3.332383
 H        -2.238748        -3.062984        -2.983764
