19
Iteration:   502charge 0 multiplicity 1
 C         1.238644        -0.164807        -0.101227
 C        -0.145632        -0.140775        -0.273974
 C        -1.323514         0.022665         0.078961
 C        -2.709599        -0.013013         0.233006
 O        -3.265234         1.404227         0.164034
 C        -3.152755        -0.958142        -0.886160
 O        -4.320923        -1.658253        -0.623896
 C        -3.153567        -2.382171        -0.795338
 C        -3.036090        -3.282810        -1.945824
 H         1.542780        -0.038346         0.941985
 H         1.771554        -1.171945        -0.280476
 H         1.540199         0.748825        -0.575963
 H        -3.216673        -0.228951         1.181776
 H        -2.644422         1.941987        -0.334577
 H        -2.958024        -0.567906        -1.902306
 H        -2.559747        -2.779042         0.132228
 H        -3.302357        -4.333340        -1.632265
 H        -3.537982        -3.112242        -2.892371
 H        -1.984342        -3.236140        -2.288282
