19
Iteration:  3625
 C         1.609769         0.137593        -0.226322
 C         0.153002         0.151784        -0.068589
 C        -1.046652        -0.129454         0.053163
 C        -2.431956        -0.388525         0.423941
 O        -3.179589         0.814250         1.019405
 C        -3.231831        -0.897296        -0.867779
 O        -4.475174        -1.663364        -0.604499
 C        -3.360422        -2.353287        -1.251877
 C        -3.728326        -2.788032        -2.645904
 H         2.039474        -0.461747         0.540035
 H         1.795914        -0.338477        -1.200646
 H         2.201687         1.084355        -0.243498
 H        -2.397055        -1.111492         1.299905
 H        -3.112508         1.497936         0.325584
 H        -3.402394        -0.231101        -1.715891
 H        -2.939726        -3.125636        -0.619371
 H        -4.552063        -3.426653        -2.772490
 H        -3.908473        -1.884409        -3.240414
 H        -2.917369        -3.101169        -3.270212
