19
Iteration:  3050
 C         1.485957         0.010478        -0.281431
 C         0.065152         0.091352        -0.071246
 C        -1.152731        -0.122676        -0.061659
 C        -2.474675        -0.371722         0.401586
 O        -3.087991         0.962513         0.780255
 C        -3.387056        -0.904786        -0.795205
 O        -4.607537        -1.716129        -0.539833
 C        -3.296755        -2.383337        -1.076679
 C        -3.323874        -2.722285        -2.589186
 H         2.067842        -0.974866         0.265691
 H         1.719616        -0.164298        -1.387886
 H         2.042999         0.947715        -0.109944
 H        -2.632208        -1.022594         1.221707
 H        -2.654256         1.381247         1.557765
 H        -3.629635        -0.172202        -1.626826
 H        -2.709551        -2.938659        -0.337519
 H        -3.644143        -3.681823        -2.908552
 H        -4.118440        -2.028619        -2.980362
 H        -2.420879        -2.342443        -3.126774
