19
Iteration:  4589charge 0 multiplicity 1
 C         1.482750         0.015563        -0.260686
 C         0.034350        -0.131330        -0.140301
 C        -1.126188        -0.220525         0.159663
 C        -2.639072        -0.450154         0.441546
 O        -2.979882         0.879263         1.076972
 C        -3.477776        -0.833162        -0.723504
 O        -4.350065        -2.081732        -0.426890
 C        -3.305268        -2.129245        -1.417569
 C        -3.486986        -2.202581        -2.887251
 H         1.565406         0.040672        -1.275907
 H         1.924665         0.870886         0.163720
 H         2.054187        -0.976370        -0.076586
 H        -2.734926        -1.181395         1.235968
 H        -2.290345         1.374623         0.606788
 H        -3.805748        -0.004341        -1.261793
 H        -2.567077        -2.855164        -1.053339
 H        -3.940189        -3.082897        -3.372768
 H        -4.203203        -1.371318        -3.233109
 H        -2.610366        -2.067032        -3.446706
