19
Iteration:   137
 C         1.416037         0.255739        -0.028353
 C        -0.017518         0.119018        -0.247262
 C        -1.176249         0.056183         0.176923
 C        -2.640751        -0.127697         0.247175
 O        -3.064225         1.184322         0.131684
 C        -2.974758        -1.110367        -0.875782
 O        -4.445139        -1.471033        -0.975334
 C        -3.480751        -2.468375        -0.738792
 C        -3.384594        -3.552844        -1.778615
 H         1.646467         1.284779         0.212455
 H         1.747041        -0.459749         0.715010
 H         1.995164         0.109231        -0.935477
 H        -2.957106        -0.499708         1.277268
 H        -2.928647         1.508071        -0.814353
 H        -2.569618        -0.878227        -1.926697
 H        -3.478631        -2.757294         0.425346
 H        -4.221342        -4.171194        -1.356726
 H        -3.630894        -3.317799        -2.836539
 H        -2.455546        -4.157294        -1.631334
