19
Iteration:  4366
 C         1.493140        -0.000812        -0.519103
 C         0.009541        -0.027765        -0.178569
 C        -1.103741        -0.270419         0.200144
 C        -2.556733        -0.453378         0.514038
 O        -3.184515         0.660348         1.261578
 C        -3.290361        -0.659196        -0.853187
 O        -4.536294        -1.627607        -0.723828
 C        -3.343506        -2.191651        -1.228646
 C        -3.332503        -2.530399        -2.697106
 H         1.905972         0.865892         0.095873
 H         1.979837        -0.954416        -0.159282
 H         1.693454         0.082249        -1.547708
 H        -2.579715        -1.492308         1.058995
 H        -2.436427         1.225018         1.553878
 H        -3.407553         0.137633        -1.635042
 H        -2.597390        -2.834938        -0.536578
 H        -3.759392        -3.521577        -3.023462
 H        -3.692539        -1.854508        -3.508892
 H        -2.204823        -2.468010        -3.010986
