19
Iteration:  3926
 C         1.523474         0.016460        -0.455642
 C        -0.003912        -0.175678        -0.187782
 C        -1.217347        -0.189330         0.080594
 C        -2.581688        -0.399785         0.526616
 O        -3.242651         0.723242         1.056012
 C        -3.299940        -0.751067        -0.688841
 O        -4.451159        -1.585544        -0.673740
 C        -3.256909        -2.086581        -1.256904
 C        -3.271787        -2.668731        -2.603859
 H         1.810960         0.613497        -1.510982
 H         2.050824         0.447478         0.420518
 H         1.816974        -1.021529        -0.506820
 H        -2.686419        -1.333185         1.212223
 H        -2.607871         1.459584         1.101079
 H        -3.286752         0.116233        -1.441663
 H        -2.798706        -2.912983        -0.645797
 H        -3.387471        -3.740112        -2.625551
 H        -4.214703        -2.301783        -3.152485
 H        -2.415252        -2.365257        -3.200279
