19
Iteration:  4673charge 0 multiplicity 1
 C         1.407075        -0.097623        -0.486424
 C         0.065498        -0.048809         0.025470
 C        -1.132570        -0.114953         0.228698
 C        -2.560540        -0.444309         0.508747
 O        -3.141280         0.604014         1.232009
 C        -3.273579        -0.794271        -0.817171
 O        -4.342604        -1.676576        -0.504524
 C        -3.278278        -2.106332        -1.463834
 C        -3.527629        -2.430620        -2.917165
 H         1.704286        -0.761569        -1.388950
 H         1.775612         0.941681        -0.730567
 H         1.997124        -0.254202         0.390406
 H        -2.563856        -1.339274         1.186202
 H        -2.964244         1.445371         0.756673
 H        -3.592877         0.104759        -1.401792
 H        -2.757623        -3.028797        -1.124211
 H        -3.655477        -3.507482        -2.947821
 H        -4.204813        -1.693085        -3.378092
 H        -2.501925        -2.203195        -3.189179
