19
Iteration:  1708charge 0 multiplicity 1
 C         1.484131         0.003619        -0.384644
 C         0.063411        -0.063590        -0.112689
 C        -1.113435        -0.105452         0.265461
 C        -2.681585        -0.147929         0.435541
 O        -3.232333         1.202710         0.255446
 C        -3.233395        -0.989509        -0.733963
 O        -4.436655        -1.778440        -0.472018
 C        -3.188844        -2.397209        -1.003070
 C        -3.406743        -2.930381        -2.354828
 H         1.777795         1.047592        -0.588357
 H         2.262524        -0.208346         0.483152
 H         1.993270        -0.590912        -1.177559
 H        -2.912575        -0.598410         1.413396
 H        -2.904828         1.813045         0.953895
 H        -3.326740        -0.261825        -1.597884
 H        -2.892911        -3.036062        -0.260615
 H        -3.908919        -3.941120        -2.400480
 H        -4.067550        -2.195153        -2.937753
 H        -2.509633        -3.138396        -3.044857
