19
Iteration:  1194charge 0 multiplicity 1
 C         1.464544        -0.039874        -0.214619
 C         0.043069        -0.123983        -0.099613
 C        -1.142590        -0.059552         0.075547
 C        -2.639196        -0.142420         0.202449
 O        -3.172481         1.185278         0.248479
 C        -3.396184        -0.837620        -0.899838
 O        -4.468515        -1.690141        -0.551142
 C        -3.195932        -2.304123        -0.860700
 C        -3.211086        -3.140423        -2.120599
 H         1.503869         1.028652        -0.446116
 H         1.957514        -0.099171         0.830156
 H         1.814238        -0.587383        -1.060965
 H        -2.898538        -0.556350         1.184755
 H        -3.635506         1.374659         1.144373
 H        -3.287907        -0.375021        -1.910565
 H        -2.914832        -2.786662         0.080536
 H        -3.546386        -4.166855        -2.044770
 H        -3.742821        -2.709709        -2.932015
 H        -2.172639        -3.147571        -2.288156
