19
Iteration:  4399charge 0 multiplicity 1
 C         1.391184        -0.090315        -0.426101
 C        -0.029544        -0.104337        -0.229068
 C        -1.207784        -0.078987         0.098254
 C        -2.503421        -0.478211         0.557568
 O        -3.172652         0.646514         1.132062
 C        -3.299001        -0.811641        -0.722532
 O        -4.469327        -1.590482        -0.576090
 C        -3.153138        -2.141828        -1.262638
 C        -3.388133        -2.476337        -2.837760
 H         1.756469         0.976824        -0.148885
 H         1.778120        -0.778785         0.362415
 H         1.718782        -0.145387        -1.433253
 H        -2.475433        -1.440311         1.257430
 H        -2.474611         1.236607         1.440539
 H        -3.269321         0.114878        -1.398908
 H        -2.567372        -2.990506        -0.614544
 H        -3.861862        -3.462314        -3.171380
 H        -3.886087        -1.529212        -3.300200
 H        -2.285970        -2.594077        -3.282512
