19
Iteration:  4866charge 0 multiplicity 1
 C         1.403837         0.327567        -0.426121
 C         0.088045        -0.196870        -0.097424
 C        -1.042483        -0.478931         0.298277
 C        -2.479735        -0.601155         0.577924
 O        -3.126385         0.466221         1.191355
 C        -3.079181        -0.897245        -0.816906
 O        -4.491662        -1.319335        -0.796123
 C        -3.506020        -2.174798        -1.284364
 C        -3.527643        -2.438967        -2.777122
 H         2.285916         0.103026         0.244917
 H         1.641183         0.186195        -1.512354
 H         1.410759         1.427360        -0.492643
 H        -2.520665        -1.433756         1.296220
 H        -2.835930         1.297247         0.750741
 H        -2.789166        -0.068153        -1.623229
 H        -3.048833        -3.044771        -0.693390
 H        -4.303046        -3.189605        -2.907245
 H        -3.903080        -1.489947        -3.155418
 H        -2.440253        -2.520532        -3.179012
