19
Iteration:  1008charge 0 multiplicity 1
 C         1.392875        -0.030416        -0.364166
 C        -0.008532         0.014343         0.014078
 C        -1.228297        -0.013642         0.205239
 C        -2.658163        -0.158541         0.309877
 O        -3.139233         1.294594         0.319265
 C        -3.181198        -0.950861        -0.890369
 O        -4.509933        -1.552662        -0.813736
 C        -3.299780        -2.405080        -0.843096
 C        -3.098677        -3.293514        -2.020062
 H         2.028519        -0.495670         0.377909
 H         1.518096        -0.778345        -1.166530
 H         1.926180         0.860846        -0.656405
 H        -3.035475        -0.597331         1.289886
 H        -4.060194         1.208768         0.584120
 H        -3.012588        -0.397692        -1.851068
 H        -3.302816        -2.846301         0.145936
 H        -3.580959        -4.338312        -2.103109
 H        -3.230424        -2.751095        -3.008472
 H        -1.991241        -3.547096        -1.929310
