19
Iteration:  4758
 C         1.377147         0.202695        -0.523649
 C        -0.005723        -0.183085        -0.203045
 C        -1.135999        -0.393475         0.258706
 C        -2.523639        -0.611038         0.599348
 O        -3.129560         0.515232         1.297653
 C        -3.221012        -0.734276        -0.749775
 O        -4.551350        -1.325515        -0.726516
 C        -3.312002        -2.132710        -1.277433
 C        -3.289823        -2.530550        -2.863859
 H         2.068694        -0.725870        -0.703051
 H         1.325905         0.713438        -1.551486
 H         1.899163         0.806204         0.218835
 H        -2.639821        -1.539405         1.210729
 H        -2.426689         1.178420         1.364451
 H        -3.132575         0.281375        -1.339455
 H        -3.213054        -2.874877        -0.468588
 H        -4.083920        -3.214765        -3.242151
 H        -3.359634        -1.761474        -3.642925
 H        -2.326194        -3.204816        -3.121968
