19
Iteration:   109charge 0 multiplicity 1
 C         1.610706         0.307067        -0.138131
 C         0.162999        -0.009294         0.146770
 C        -1.112659        -0.092506         0.062680
 C        -2.690828        -0.053422         0.103574
 O        -3.298326         1.142714         0.093376
 C        -3.123567        -1.035122        -0.951022
 O        -4.462613        -1.418797        -0.896638
 C        -3.490258        -2.443018        -0.690258
 C        -3.360350        -3.572301        -1.752262
 H         1.787497         1.274317         0.407494
 H         2.298802        -0.604754         0.086957
 H         1.904520         0.588193        -1.185739
 H        -2.999168        -0.496906         1.050208
 H        -2.917369         1.778384        -0.589673
 H        -2.713423        -0.901650        -1.939508
 H        -3.453171        -2.645065         0.318595
 H        -4.098341        -4.364085        -1.624264
 H        -3.314409        -3.267029        -2.802633
 H        -2.388881        -4.032163        -1.544084
