19
Iteration:  1452
 C         1.469307         0.392065        -0.382873
 C         0.145735        -0.090084         0.009308
 C        -1.010193        -0.087683         0.168778
 C        -2.491122        -0.267554         0.343891
 O        -3.119701         0.945902         0.445895
 C        -3.042862        -1.007788        -0.905118
 O        -4.542906        -1.303849        -0.754267
 C        -3.569107        -2.370327        -0.912040
 C        -3.462654        -3.342857        -2.125664
 H         2.113235        -0.552599        -0.262700
 H         1.294643         0.791203        -1.374445
 H         1.914893         1.208264         0.288075
 H        -2.548377        -1.018098         1.159388
 H        -4.151582         0.943303         0.547079
 H        -2.877987        -0.527172        -1.844038
 H        -3.251483        -2.922857        -0.010198
 H        -4.453976        -3.894560        -2.213367
 H        -3.386235        -2.828842        -3.091204
 H        -2.621059        -4.051925        -1.905057
