19
Iteration:    31charge 0 multiplicity 1
 C         1.453606         0.163842         0.007562
 C        -0.003776         0.126281        -0.196989
 C        -1.162675         0.048472         0.125383
 C        -2.611097         0.117397         0.216036
 O        -3.156158         1.295306         0.052856
 C        -3.094980        -1.068752        -0.863525
 O        -4.394056        -1.621116        -0.906997
 C        -3.407169        -2.576668        -0.718137
 C        -3.387910        -3.588523        -1.776669
 H         1.832967        -0.158131         1.062927
 H         2.050207        -0.610093        -0.702648
 H         1.722907         1.135958        -0.410971
 H        -3.018017        -0.332975         1.143353
 H        -2.509199         1.970927        -0.323855
 H        -2.856689        -0.717924        -1.847277
 H        -3.571896        -2.906248         0.263458
 H        -4.151104        -4.393492        -1.576744
 H        -3.733312        -3.160677        -2.713837
 H        -2.501843        -4.146387        -2.056128
