19
Iteration:   835
 C         1.598339         0.367384         0.111031
 C         0.175751         0.061018        -0.037244
 C        -1.059533        -0.035465         0.005925
 C        -2.543845        -0.253038         0.246236
 O        -3.328833         1.104508         0.103076
 C        -3.125614        -1.013098        -0.990030
 O        -4.457721        -1.528575        -0.653810
 C        -3.344145        -2.554388        -0.878583
 C        -3.641930        -3.324271        -2.048439
 H         2.248729        -0.393528        -0.491283
 H         1.934640         1.308383        -0.244082
 H         2.097023         0.122774         1.106781
 H        -2.736332        -0.579517         1.321532
 H        -2.623446         1.824942        -0.147218
 H        -2.901281        -0.566616        -1.981174
 H        -3.038328        -3.085625        -0.002868
 H        -4.303382        -4.002706        -1.641210
 H        -4.058634        -2.769480        -2.864734
 H        -2.856815        -3.928919        -2.448656
