19
Iteration:  4423
 C         1.485088        -0.097907        -0.408121
 C         0.026653        -0.122994        -0.159877
 C        -1.124553        -0.108659         0.124946
 C        -2.503320        -0.376609         0.528416
 O        -3.240057         0.699036         1.096450
 C        -3.314594        -0.846175        -0.715832
 O        -4.429798        -1.775098        -0.615539
 C        -3.260492        -2.151442        -1.301192
 C        -3.418477        -2.317232        -2.765004
 H         1.772328         0.955617        -0.530195
 H         2.073386        -0.587793         0.398964
 H         1.653320        -0.325446        -1.487490
 H        -2.364922        -1.316969         1.230896
 H        -2.614398         1.300830         1.520943
 H        -3.575366         0.094594        -1.370301
 H        -2.647063        -3.072138        -0.887464
 H        -3.915889        -3.360414        -2.878891
 H        -4.033670        -1.505233        -3.359598
 H        -2.427493        -2.612721        -3.231525
