19
Iteration:  4683
 C         1.457616        -0.050486        -0.503561
 C         0.108182        -0.013079         0.027294
 C        -1.124513        -0.107737         0.152115
 C        -2.513492        -0.466445         0.540566
 O        -3.214904         0.602441         1.277860
 C        -3.239129        -0.814983        -0.743543
 O        -4.379250        -1.661139        -0.592245
 C        -3.399054        -2.128379        -1.413740
 C        -3.435053        -2.442109        -2.911548
 H         1.408771        -1.041585        -1.110716
 H         1.858533         0.893224        -1.005219
 H         2.147023        -0.372505         0.241019
 H        -2.653581        -1.410068         1.249066
 H        -2.857331         1.443632         0.910253
 H        -3.371737         0.122792        -1.392700
 H        -2.808818        -2.821288        -0.756017
 H        -3.935837        -3.393640        -3.129352
 H        -4.124620        -1.750199        -3.424227
 H        -2.517825        -2.349458        -3.570121
