19
Iteration:  4619charge 0 multiplicity 1
 C         1.449873         0.016018        -0.302865
 C         0.052923        -0.229696        -0.150750
 C        -1.127161        -0.310890         0.069254
 C        -2.561569        -0.415962         0.544940
 O        -3.170750         0.803767         1.121264
 C        -3.361513        -0.776674        -0.640196
 O        -4.323168        -1.907538        -0.481391
 C        -3.182918        -2.084945        -1.465141
 C        -3.527351        -2.290047        -2.921520
 H         1.746939        -0.167782        -1.422253
 H         1.798375         1.060575        -0.082606
 H         2.021009        -0.721793         0.247478
 H        -2.548816        -1.101842         1.350715
 H        -2.720146         1.563132         0.704540
 H        -3.760884         0.092044        -1.195696
 H        -2.501563        -2.883320        -0.960448
 H        -4.011221        -3.302604        -3.075952
 H        -4.453424        -1.587812        -3.067281
 H        -2.678899        -2.092297        -3.595273
