19
Iteration:  2824charge 0 multiplicity 1
 C         1.531366         0.236534        -0.390289
 C         0.128588         0.147202         0.096005
 C        -1.067457        -0.158875         0.097111
 C        -2.589353        -0.377589         0.284897
 O        -3.112060         0.719026         0.992816
 C        -3.220554        -0.859834        -0.996424
 O        -4.484682        -1.367521        -0.763677
 C        -3.405703        -2.319969        -1.134685
 C        -3.545559        -3.134776        -2.385205
 H         1.824859         0.746959        -1.247021
 H         2.100235         0.795288         0.393376
 H         1.950193        -0.843168        -0.400509
 H        -2.900230        -1.127738         0.934070
 H        -2.769775         1.606455         0.824639
 H        -3.031477        -0.312182        -1.886177
 H        -3.091634        -3.026243        -0.326192
 H        -4.239960        -3.907111        -2.423745
 H        -3.792333        -2.381357        -3.129104
 H        -2.587419        -3.449486        -2.531921
