19
Iteration:  3586
 C         1.521917         0.250672        -0.211173
 C         0.166748        -0.036664        -0.068383
 C        -1.030553        -0.091750         0.153788
 C        -2.427447        -0.462290         0.409679
 O        -3.208768         0.715788         0.866299
 C        -3.181967        -0.880436        -0.925672
 O        -4.382239        -1.538875        -0.508568
 C        -3.357469        -2.310275        -1.254152
 C        -3.806488        -2.783694        -2.662659
 H         2.079199        -0.674462         0.222743
 H         1.836575         0.187297        -1.272398
 H         1.843417         1.262338         0.240630
 H        -2.494868        -1.306582         1.070119
 H        -2.688240         1.420614         0.418635
 H        -3.428661        -0.010378        -1.534521
 H        -2.733999        -2.930177        -0.581012
 H        -4.586755        -3.586308        -2.547757
 H        -4.177778        -1.947895        -3.218134
 H        -2.913947        -3.363281        -3.083198
