19
Iteration:  3814
 C         1.282253        -0.043089        -0.670209
 C        -0.049268        -0.207976        -0.172149
 C        -1.128223        -0.260161         0.343174
 C        -2.588260        -0.301000         0.517814
 O        -3.288019         0.892837         1.080043
 C        -3.193560        -0.923055        -0.719606
 O        -4.343618        -1.547372        -0.639817
 C        -3.256875        -2.330724        -1.182653
 C        -3.198211        -2.507229        -2.691601
 H         1.660567         1.097662        -0.365379
 H         2.063272        -0.558035        -0.050840
 H         1.525619        -0.358278        -1.664345
 H        -2.958445        -1.113969         1.211942
 H        -3.208182         1.695657         0.497881
 H        -3.049745        -0.205476        -1.613842
 H        -2.950146        -3.180629        -0.487409
 H        -4.027839        -3.233124        -2.883900
 H        -3.149994        -1.546764        -3.151416
 H        -2.324037        -3.137530        -2.888525
