19
Iteration:  2006charge 0 multiplicity 1
 C         1.473035         0.185683        -0.531279
 C         0.147408         0.044217        -0.035958
 C        -1.028768        -0.263325         0.169438
 C        -2.611963        -0.328954         0.401417
 O        -3.166903         0.960645         0.532851
 C        -3.248204        -0.924619        -0.789028
 O        -4.617632        -1.411867        -0.884638
 C        -3.495922        -2.319944        -0.840310
 C        -3.153023        -3.108108        -2.153885
 H         1.959267        -0.677430        -0.234817
 H         1.343514         0.017177        -1.663337
 H         2.010974         1.161541        -0.341699
 H        -2.868644        -0.727613         1.444044
 H        -3.057836         1.114123         1.475059
 H        -3.104193        -0.342114        -1.705095
 H        -3.594678        -2.901766         0.100206
 H        -3.742909        -4.042498        -2.277698
 H        -3.413398        -2.489588        -2.980253
 H        -2.082485        -3.189672        -2.121069
