19
Iteration:  1229
 C         1.496806         0.043140        -0.216294
 C         0.029484        -0.036897         0.042832
 C        -1.168617        -0.111327         0.012578
 C        -2.540406        -0.076115         0.255909
 O        -3.165418         1.266367         0.347896
 C        -3.321439        -0.925449        -0.865619
 O        -4.445324        -1.674896        -0.481690
 C        -3.298155        -2.420115        -0.943549
 C        -3.309555        -3.185545        -2.225825
 H         1.602701         0.949653        -0.878935
 H         2.072585         0.242356         0.707412
 H         1.985162        -0.845084        -0.625754
 H        -2.868957        -0.666059         1.127327
 H        -3.651713         1.279902        -0.569872
 H        -3.352686        -0.550066        -1.903082
 H        -2.889874        -3.029877        -0.070417
 H        -3.859955        -4.124838        -2.060259
 H        -3.738937        -2.576603        -3.022370
 H        -2.290353        -3.467603        -2.558101
