19
Iteration:  3502
 C         1.538150         0.375490        -0.244163
 C         0.089549         0.111608        -0.106371
 C        -0.997609        -0.434244         0.033089
 C        -2.516658        -0.454942         0.452102
 O        -2.928199         0.767811         0.834320
 C        -3.283458        -0.904272        -0.789310
 O        -4.631850        -1.454341        -0.672393
 C        -3.474676        -2.335607        -1.135601
 C        -3.559112        -2.843129        -2.603494
 H         2.126736        -0.471729        -0.522481
 H         1.549329         1.287547        -0.813178
 H         1.874273         0.602929         0.840254
 H        -2.725785        -1.271025         1.223671
 H        -2.247542         1.120213         1.425778
 H        -3.200034        -0.005977        -1.499907
 H        -3.321768        -3.298116        -0.520232
 H        -4.078935        -3.820001        -2.809854
 H        -4.010062        -2.142081        -3.344422
 H        -2.667417        -3.084646        -3.120493
