19
Iteration:  2662
 C         1.486745         0.213637        -0.228585
 C         0.055175        -0.021225        -0.081378
 C        -1.081234        -0.216217         0.127155
 C        -2.506797        -0.337661         0.337816
 O        -3.104371         0.998854         0.730418
 C        -3.323494        -0.882529        -0.862072
 O        -4.499342        -1.641349        -0.574269
 C        -3.256812        -2.334328        -1.125280
 C        -3.540161        -2.972375        -2.498222
 H         1.844738         0.808251         0.523562
 H         2.027813        -0.729942        -0.133558
 H         1.653998         0.671912        -1.229790
 H        -2.803928        -1.059779         1.159787
 H        -2.365830         1.612181         0.534476
 H        -3.467959        -0.103493        -1.561718
 H        -2.620962        -2.793419        -0.386456
 H        -3.867828        -4.013898        -2.603920
 H        -4.239797        -2.322106        -3.063312
 H        -2.612092        -3.069849        -3.041088
