19
Iteration:  3694
 C         1.481473         0.170985        -0.341608
 C         0.106155        -0.149367        -0.225134
 C        -1.029299        -0.328743         0.091424
 C        -2.549336        -0.399183         0.424309
 O        -3.168736         0.836258         1.044342
 C        -3.329645        -0.798032        -0.802354
 O        -4.583980        -1.609766        -0.605261
 C        -3.342272        -2.207160        -1.214380
 C        -3.360486        -2.749040        -2.606451
 H         1.980048         0.410259         0.687358
 H         2.032083        -0.602235        -0.860306
 H         1.672928         0.964434        -0.960164
 H        -2.621214        -1.148765         1.182090
 H        -2.632523         1.598777         0.784550
 H        -3.390352        -0.055521        -1.586913
 H        -2.661045        -2.682265        -0.498668
 H        -3.730776        -3.812150        -2.663741
 H        -4.070965        -2.119234        -3.139449
 H        -2.370851        -2.548143        -3.143143
