19
Iteration:  4246charge 0 multiplicity 1
 C         1.464156         0.318795        -0.467690
 C         0.083351        -0.135829         0.024669
 C        -1.054011        -0.385022         0.340959
 C        -2.509058        -0.467994         0.468892
 O        -3.080808         0.723174         1.017506
 C        -3.206731        -0.946334        -0.807365
 O        -4.496713        -1.455637        -0.658056
 C        -3.457365        -2.346124        -1.292536
 C        -3.474741        -2.538305        -2.788776
 H         2.321519         0.158470         0.250515
 H         1.545088        -0.160560        -1.405822
 H         1.369416         1.303528        -0.773187
 H        -2.774294        -1.203465         1.174396
 H        -2.491146         1.065354         1.722255
 H        -3.149255        -0.155043        -1.563177
 H        -3.513105        -3.197413        -0.601915
 H        -4.328599        -3.064011        -3.179828
 H        -3.293188        -1.661308        -3.333855
 H        -2.699147        -3.252014        -3.039176
