19
Iteration:   324
 C         1.521920         0.102005        -0.081009
 C         0.127559         0.018217         0.221019
 C        -1.081452        -0.053572        -0.048302
 C        -2.567623        -0.101838         0.041129
 O        -3.294560         1.167374        -0.045032
 C        -3.403748        -0.959608        -0.989457
 O        -4.594769        -1.606541        -0.593494
 C        -3.298519        -2.413942        -0.752957
 C        -3.177842        -3.313030        -1.868491
 H         1.863805        -0.603467        -0.836116
 H         1.761915         1.159400        -0.314291
 H         2.241286         0.115119         0.863944
 H        -2.614705        -0.511332         1.081370
 H        -2.691098         1.803962         0.384030
 H        -3.468862        -0.619615        -2.015272
 H        -2.910264        -2.763492         0.271990
 H        -3.785512        -4.247325        -1.818678
 H        -3.552721        -2.893164        -2.818702
 H        -2.180407        -3.629226        -2.144594
