19
Iteration:  4329
 C         1.354074         0.095662        -0.561072
 C         0.064243        -0.166806         0.047888
 C        -1.170145        -0.270084         0.129377
 C        -2.507744        -0.498376         0.578278
 O        -3.097222         0.659896         1.185959
 C        -3.260742        -0.776293        -0.798129
 O        -4.506571        -1.465367        -0.736477
 C        -3.398608        -2.172713        -1.277234
 C        -3.299228        -2.625055        -2.772555
 H         1.903462         0.817676         0.045838
 H         2.060633        -0.722869        -0.719172
 H         1.104322         0.806164        -1.449719
 H        -2.604246        -1.333273         1.327723
 H        -2.410342         1.266605         1.486006
 H        -3.203921         0.066955        -1.441553
 H        -2.900957        -2.806036        -0.552183
 H        -3.787982        -3.598881        -2.876457
 H        -3.822470        -1.947458        -3.474710
 H        -2.174526        -2.594933        -2.956518
