19
Iteration:  3477charge 0 multiplicity 1
 C         1.441190         0.406965        -0.267847
 C         0.099265        -0.104437        -0.119905
 C        -1.068962        -0.356725         0.058467
 C        -2.465401        -0.515237         0.367793
 O        -2.980435         0.794153         0.865843
 C        -3.190032        -0.843165        -0.908142
 O        -4.590830        -1.502765        -0.696180
 C        -3.489144        -2.303092        -1.056747
 C        -3.541096        -2.779588        -2.486675
 H         2.010610        -0.206465        -0.789213
 H         1.381781         1.414415        -0.630911
 H         1.886935         0.308509         0.760342
 H        -2.583553        -1.407398         1.108702
 H        -2.326892         1.051488         1.554855
 H        -3.051224        -0.127813        -1.686061
 H        -3.153848        -3.029259        -0.426490
 H        -4.202315        -3.548636        -2.881310
 H        -3.765709        -1.985270        -3.101090
 H        -2.595467        -3.080575        -2.942416
