19
Iteration:  4346
 C         1.427087         0.103757        -0.546594
 C         0.085656        -0.157385        -0.046421
 C        -1.116654        -0.188861         0.197730
 C        -2.543899        -0.491347         0.481281
 O        -3.112975         0.619427         1.183807
 C        -3.374757        -0.777852        -0.683545
 O        -4.580184        -1.511820        -0.771705
 C        -3.268055        -2.120403        -1.320347
 C        -3.260104        -2.599974        -2.668514
 H         2.028142         0.799211         0.065531
 H         1.758079        -0.945538        -0.362174
 H         1.315606         0.343525        -1.604566
 H        -2.587417        -1.438295         1.071088
 H        -2.354600         1.170126         1.399244
 H        -3.398151         0.134999        -1.422074
 H        -3.109714        -2.904576        -0.505048
 H        -3.915341        -3.507865        -2.728792
 H        -3.779971        -1.986572        -3.476872
 H        -2.369166        -2.495287        -3.252541
