19
Iteration:  4468charge 0 multiplicity 1
 C         1.382060        -0.053477        -0.420800
 C         0.052342        -0.112599         0.020835
 C        -1.096854        -0.204598         0.207456
 C        -2.497366        -0.392270         0.481595
 O        -3.121637         0.769960         0.926123
 C        -3.351425        -0.825171        -0.686727
 O        -4.364475        -1.908252        -0.491083
 C        -3.255639        -2.022988        -1.398760
 C        -3.523234        -2.357561        -2.817368
 H         1.614778         0.909732        -0.789909
 H         1.949474        -0.199389         0.504024
 H         1.629169        -0.798536        -1.252213
 H        -2.605341        -1.297985         1.226413
 H        -2.759509         0.954328         1.798841
 H        -3.594990         0.062157        -1.347074
 H        -2.375345        -2.612521        -1.003878
 H        -3.909007        -3.350268        -3.145474
 H        -4.158267        -1.558955        -3.435263
 H        -2.637453        -2.174305        -3.409758
