19
Iteration:   614
 C         1.362771        -0.010730        -0.248890
 C        -0.049341        -0.068399        -0.174697
 C        -1.158501        -0.133481         0.236226
 C        -2.643928        -0.051165         0.312432
 O        -3.421134         1.222056         0.014585
 C        -3.107767        -0.956398        -0.822640
 O        -4.407183        -1.456804        -0.852151
 C        -3.141023        -2.444641        -0.696483
 C        -3.124948        -3.285867        -1.891649
 H         1.859808         0.969990        -0.095601
 H         1.533822        -0.748107         0.588526
 H         1.909944        -0.345115        -1.093458
 H        -3.102328        -0.351629         1.272663
 H        -3.204578         1.779583         0.859175
 H        -2.656817        -0.364999        -1.705064
 H        -3.220616        -2.961967         0.253724
 H        -3.960536        -3.970264        -1.883787
 H        -3.430740        -2.739609        -2.781053
 H        -2.235180        -3.974113        -1.894253
