19
Iteration:  3864charge 0 multiplicity 1
 C         1.378371        -0.129736        -0.589144
 C         0.005819         0.014254        -0.112135
 C        -1.179040        -0.162320         0.188129
 C        -2.569235        -0.301972         0.581555
 O        -3.235613         0.733903         1.170478
 C        -3.292687        -0.731795        -0.755087
 O        -4.479893        -1.616622        -0.717713
 C        -3.205340        -2.139892        -1.233277
 C        -3.194064        -2.737120        -2.684478
 H         1.770372         0.619456        -1.104979
 H         2.153720        -0.392965         0.119520
 H         1.267374        -1.029209        -1.303918
 H        -2.526567        -1.147690         1.272823
 H        -2.950542         1.558058         0.737872
 H        -3.280577         0.066892        -1.467333
 H        -2.839228        -2.768112        -0.458005
 H        -3.874640        -3.582232        -2.765413
 H        -3.516459        -1.801106        -3.191268
 H        -2.196320        -3.025071        -3.086148
