19
Iteration:  2479
 C         1.350187         0.029270        -0.536843
 C         0.038284        -0.087785        -0.048996
 C        -1.193126        -0.152582         0.240590
 C        -2.625998        -0.213813         0.413874
 O        -3.070823         1.038152         0.721428
 C        -3.303946        -0.940282        -0.821066
 O        -4.562982        -1.647400        -0.662804
 C        -3.303638        -2.346876        -0.951646
 C        -3.091057        -2.835206        -2.424900
 H         1.797428        -1.068760        -0.607924
 H         1.351261         0.440221        -1.505048
 H         2.003452         0.507508         0.161425
 H        -2.932200        -0.929543         1.269889
 H        -3.276174         1.469737        -0.158643
 H        -3.318338        -0.260838        -1.653765
 H        -2.968435        -2.848721        -0.112984
 H        -3.365356        -3.872388        -2.598679
 H        -3.675737        -2.096752        -3.019003
 H        -2.034366        -2.909126        -2.431302
