19
Iteration:  2717
 C         1.434243         0.319603        -0.276818
 C         0.092517        -0.022479         0.056390
 C        -1.076693        -0.341105         0.114375
 C        -2.497011        -0.324352         0.380543
 O        -3.038919         0.933005         0.676058
 C        -3.204625        -0.913190        -0.781081
 O        -4.498218        -1.604204        -0.625414
 C        -3.388793        -2.364354        -1.084361
 C        -3.541605        -2.859132        -2.522735
 H         1.589051         1.300421        -0.096311
 H         2.068411        -0.333781         0.325268
 H         1.686787         0.187743        -1.373473
 H        -2.862981        -0.981678         1.244725
 H        -2.764781         1.574720        -0.004872
 H        -3.293224        -0.333419        -1.669721
 H        -2.960904        -3.184595        -0.444007
 H        -4.145799        -3.762002        -2.344505
 H        -4.013276        -2.289549        -3.335603
 H        -2.628532        -3.266785        -3.013154
