19
Iteration:  4568charge 0 multiplicity 1
 C         1.491818         0.002072        -0.322240
 C         0.036903        -0.051212        -0.031130
 C        -1.138632        -0.408454         0.069448
 C        -2.553901        -0.343735         0.471895
 O        -3.013095         0.868374         1.016552
 C        -3.529512        -0.921879        -0.619171
 O        -4.388125        -2.033498        -0.554676
 C        -3.206486        -2.149805        -1.391656
 C        -3.542900        -2.165157        -2.833619
 H         1.759269         0.309685        -1.249453
 H         1.839447         0.711008         0.367776
 H         2.047736        -1.032091        -0.176101
 H        -2.504601        -0.988505         1.424438
 H        -2.383477         1.606068         0.848939
 H        -3.965645        -0.126804        -1.172878
 H        -2.306602        -2.567651        -1.058495
 H        -3.881812        -3.162347        -3.181162
 H        -4.334016        -1.484770        -3.202058
 H        -2.645972        -2.076191        -3.372425
