19
Iteration:  1634
 C         1.499052         0.109320        -0.287945
 C         0.021438         0.059029        -0.252563
 C        -1.181824        -0.125370         0.064546
 C        -2.595597        -0.268592         0.378824
 O        -3.102913         1.103786         0.577023
 C        -3.261613        -0.854861        -0.860378
 O        -4.542275        -1.647744        -0.722260
 C        -3.314905        -2.314193        -0.930442
 C        -3.328568        -3.148253        -2.184733
 H         1.993522         0.853215         0.336325
 H         2.076954        -0.814434        -0.074289
 H         1.860451         0.250992        -1.304227
 H        -2.930111        -1.021791         1.171769
 H        -2.536573         1.581656         1.190923
 H        -3.172934        -0.441454        -1.883108
 H        -2.954620        -2.836242         0.065165
 H        -4.028187        -3.961930        -1.892839
 H        -3.811091        -2.785311        -3.138444
 H        -2.345249        -3.481634        -2.562168
