19
Iteration:  4142
 C         1.606010         0.190958        -0.069821
 C         0.169859         0.050265        -0.063420
 C        -1.025928        -0.168167        -0.148533
 C        -2.461224        -0.454371         0.347394
 O        -3.127907         0.539916         1.043631
 C        -3.290887        -0.790260        -0.805381
 O        -4.491415        -1.551603        -0.670401
 C        -3.457112        -2.243651        -1.234593
 C        -3.702437        -2.674946        -2.682406
 H         2.168712        -0.678061        -0.172473
 H         1.960088         0.559899        -1.090127
 H         2.062335         0.852570         0.761968
 H        -2.368627        -1.210105         1.119784
 H        -2.503927         1.210512         1.365752
 H        -3.210861         0.101754        -1.522366
 H        -2.903515        -3.027980        -0.635031
 H        -3.973922        -3.753847        -2.636715
 H        -4.628736        -2.140365        -3.136159
 H        -2.863525        -2.541878        -3.415521
