19
Iteration:  4769
 C         1.376946         0.209949        -0.550149
 C         0.030574        -0.162162        -0.150041
 C        -1.073294        -0.427265         0.308869
 C        -2.554624        -0.608459         0.619743
 O        -3.062647         0.504616         1.298442
 C        -3.261131        -0.783627        -0.750221
 O        -4.537027        -1.364392        -0.847016
 C        -3.402762        -2.069378        -1.366973
 C        -3.343478        -2.524102        -2.743427
 H         2.196406        -0.593886        -0.732084
 H         1.242600         0.749296        -1.557407
 H         1.681225         1.037151         0.073169
 H        -2.838625        -1.467844         1.236078
 H        -2.382585         1.201830         1.378138
 H        -3.108848         0.091233        -1.516913
 H        -2.995950        -2.914640        -0.764293
 H        -4.115307        -3.275557        -2.963985
 H        -3.223432        -1.608765        -3.326382
 H        -2.242283        -2.982265        -2.721088
