19
Iteration:  4822
 C         1.223118         0.315794        -0.513847
 C         0.003121        -0.131055        -0.000981
 C        -1.087776        -0.529510         0.311165
 C        -2.484861        -0.695512         0.601446
 O        -2.914205         0.560656         1.279193
 C        -3.046616        -0.832063        -0.768667
 O        -4.537025        -1.304025        -0.850875
 C        -3.515333        -2.118610        -1.289095
 C        -3.390279        -2.538541        -2.852590
 H         2.037517        -0.300066        -0.076698
 H         1.041099         0.353221        -1.616649
 H         1.536456         1.368725        -0.350735
 H        -2.891808        -1.456782         1.167665
 H        -2.518158         1.336062         0.821104
 H        -2.920250         0.018718        -1.581751
 H        -3.575693        -3.077046        -0.659916
 H        -3.947947        -3.484703        -3.036307
 H        -3.835713        -1.876156        -3.586762
 H        -2.224276        -2.533535        -3.033453
