19
Iteration:   178charge 0 multiplicity 1
 C         1.521826         0.280274        -0.112284
 C         0.018594         0.147344         0.028970
 C        -1.148377        -0.105108         0.065605
 C        -2.601323        -0.147445         0.141614
 O        -3.223825         1.128926         0.084781
 C        -3.028005        -1.067422        -0.915504
 O        -4.497024        -1.421415        -0.905568
 C        -3.487209        -2.437073        -0.718747
 C        -3.349254        -3.488435        -1.710542
 H         1.700820         1.294700        -0.478928
 H         1.988571         0.021266         0.817118
 H         1.989922        -0.523057        -0.804005
 H        -2.971659        -0.616702         1.026139
 H        -2.636290         1.717698        -0.403009
 H        -2.450639        -0.859934        -1.834632
 H        -3.497790        -2.891101         0.231451
 H        -4.134700        -4.232178        -1.710467
 H        -3.273156        -3.225723        -2.758578
 H        -2.413749        -4.057304        -1.602872
