19
Iteration:   269charge 0 multiplicity 1
 C         1.397960         0.201215         0.030169
 C        -0.069599         0.094306        -0.327052
 C        -1.169468        -0.025087         0.150646
 C        -2.622874        -0.126942         0.247090
 O        -3.116190         1.241728        -0.032634
 C        -3.070859        -1.061492        -0.955839
 O        -4.408212        -1.558974        -0.771888
 C        -3.387905        -2.429356        -0.689371
 C        -3.351978        -3.467181        -1.851546
 H         2.005488         0.153848        -0.881128
 H         1.832020         1.020494         0.603217
 H         1.639365        -0.733546         0.683278
 H        -2.920788        -0.554104         1.212916
 H        -2.993793         1.760538         0.832423
 H        -2.686610        -0.657841        -1.923588
 H        -3.249745        -3.027015         0.296081
 H        -4.099203        -4.313840        -1.668405
 H        -3.620700        -2.880346        -2.765666
 H        -2.328137        -3.787204        -2.079608
