19
Iteration:   516charge 0 multiplicity 1
 C         1.356734        -0.144245        -0.146085
 C        -0.127001        -0.151828        -0.198116
 C        -1.329205         0.052953         0.139538
 C        -2.782263        -0.022368         0.218336
 O        -3.293038         1.306895         0.146750
 C        -3.209335        -0.854758        -0.973777
 O        -4.389557        -1.618251        -0.633204
 C        -3.100402        -2.350856        -0.766819
 C        -2.986585        -3.333389        -1.918473
 H         1.626365         0.119714         0.899711
 H         1.678221        -1.167486        -0.441990
 H         1.980702         0.430245        -0.816896
 H        -2.980487        -0.666644         1.075317
 H        -2.469396         1.852937        -0.117282
 H        -3.277183        -0.297350        -1.972514
 H        -2.782966        -2.673323         0.218691
 H        -3.321379        -4.402919        -1.692328
 H        -3.672517        -2.923180        -2.709806
 H        -1.844280        -3.504198        -2.209233
