19
Iteration:  2870
 C         1.531077         0.284153        -0.310891
 C         0.073631        -0.102764        -0.287411
 C        -1.075403        -0.173761         0.146411
 C        -2.519650        -0.397205         0.508504
 O        -3.256433         0.751342         1.006773
 C        -3.115600        -0.909952        -0.965706
 O        -4.476817        -1.300357        -0.822058
 C        -3.402192        -2.318129        -1.028559
 C        -3.482245        -3.009544        -2.428744
 H         1.917959         0.291841        -1.288584
 H         1.756142         1.299816         0.035865
 H         2.133378        -0.573114         0.158967
 H        -2.544310        -1.087483         1.287395
 H        -3.269798         1.425821         0.303070
 H        -2.912347        -0.307048        -1.842664
 H        -3.044657        -3.056828        -0.250944
 H        -4.101213        -3.881013        -2.396302
 H        -3.899002        -2.372520        -3.145842
 H        -2.531391        -3.311843        -2.689498
