19
Iteration:  1599charge 0 multiplicity 1
 C         1.482511         0.135878        -0.258214
 C        -0.018764         0.041374        -0.319924
 C        -1.139268        -0.109634         0.019255
 C        -2.594437        -0.249734         0.311872
 O        -3.127916         1.088946         0.783452
 C        -3.183323        -0.913491        -0.913252
 O        -4.491233        -1.442284        -0.715316
 C        -3.410668        -2.360242        -0.928823
 C        -3.310597        -3.325591        -2.235539
 H         1.807775         0.613739         0.623824
 H         1.864710        -0.939824        -0.374369
 H         1.660205         0.782178        -1.082405
 H        -2.729444        -0.879130         1.206789
 H        -2.750135         1.853397         0.334243
 H        -2.875750        -0.487508        -1.918953
 H        -3.148880        -2.942410        -0.031198
 H        -3.925820        -4.174437        -1.857211
 H        -3.706159        -2.833558        -3.179455
 H        -2.308381        -3.832942        -2.197046
