19
Iteration:  3125
 C         1.472864        -0.070559        -0.343474
 C         0.085906        -0.113434        -0.072489
 C        -1.139690        -0.126867         0.058064
 C        -2.589111        -0.275109         0.396525
 O        -3.310995         0.976159         0.840201
 C        -3.323998        -0.743888        -0.876035
 O        -4.271327        -1.842216        -0.472049
 C        -3.184432        -2.167624        -1.243907
 C        -3.489238        -2.770409        -2.566113
 H         2.001118        -0.001048         0.519325
 H         1.840604        -0.982647        -0.770097
 H         1.660628         0.909391        -0.853136
 H        -2.783518        -0.923551         1.350113
 H        -2.610069         1.297378         1.440297
 H        -3.578170         0.093583        -1.609873
 H        -2.417106        -2.734372        -0.658008
 H        -4.155188        -3.541106        -2.507805
 H        -4.054906        -1.989902        -3.053754
 H        -2.681431        -2.949153        -3.248538
