19
Iteration:  3632charge 0 multiplicity 1
 C         1.631245         0.100574        -0.219391
 C         0.118901         0.168412        -0.041885
 C        -1.070477        -0.124395        -0.006150
 C        -2.436599        -0.404330         0.391381
 O        -3.157530         0.801334         1.004321
 C        -3.302515        -0.910302        -0.787399
 O        -4.454388        -1.654856        -0.624431
 C        -3.360272        -2.358086        -1.288067
 C        -3.678977        -2.739031        -2.609135
 H         2.164518        -0.506575         0.512345
 H         1.866024        -0.406755        -1.185379
 H         1.961010         1.258488        -0.434983
 H        -2.525829        -1.130647         1.251988
 H        -3.181251         1.569700         0.414603
 H        -3.089620        -0.152977        -1.637545
 H        -2.952776        -3.161386        -0.577184
 H        -4.516799        -3.510635        -2.702022
 H        -4.031789        -1.778732        -3.133841
 H        -2.824018        -3.209608        -3.119865
