19
Iteration:  2194
 C         1.515882         0.314246        -0.114015
 C         0.068314         0.040558        -0.213925
 C        -1.091191        -0.195839         0.094476
 C        -2.503194        -0.289413         0.352771
 O        -3.076201         1.010488         0.543150
 C        -3.225151        -0.907419        -1.010577
 O        -4.445161        -1.611261        -0.446240
 C        -3.359158        -2.387421        -1.052681
 C        -3.670213        -3.171028        -2.407098
 H         1.674550         1.356793         0.365398
 H         2.010564        -0.330230         0.610169
 H         2.177044         0.290807        -0.991831
 H        -2.618702        -0.910267         1.165441
 H        -2.420403         1.748859         0.489367
 H        -3.411114        -0.012898        -1.642813
 H        -2.728681        -2.957637        -0.225910
 H        -4.137723        -4.160552        -2.315806
 H        -4.370507        -2.686049        -3.126548
 H        -2.764701        -3.457637        -2.945100
