19
Iteration:  1365
 C         1.516056         0.253813        -0.150449
 C         0.100495         0.181657        -0.218780
 C        -1.053420        -0.099122         0.063433
 C        -2.498819        -0.324417         0.317781
 O        -3.167046         1.018725         0.465462
 C        -3.158210        -0.989061        -0.913649
 O        -4.496110        -1.410850        -0.743429
 C        -3.475432        -2.422091        -0.952426
 C        -3.521752        -3.311075        -2.077522
 H         2.037626        -0.200942        -1.001399
 H         1.835519         1.261306        -0.242633
 H         1.914920        -0.209437         0.793609
 H        -2.758695        -1.097736         1.093139
 H        -2.420063         1.687784         0.648139
 H        -3.181710        -0.524116        -1.878275
 H        -3.234683        -3.015017        -0.101674
 H        -4.126268        -4.193723        -1.674359
 H        -3.962914        -2.978087        -3.047381
 H        -2.511636        -3.802620        -2.254281
