19
Iteration:  1127charge 0 multiplicity 1
 C         1.482463        -0.235079        -0.368177
 C        -0.014877         0.003943        -0.047045
 C        -1.223607         0.092925         0.123854
 C        -2.705458        -0.057543         0.301900
 O        -3.219194         1.271560         0.411732
 C        -3.273215        -0.818913        -0.855494
 O        -4.504105        -1.691049        -0.715595
 C        -3.231889        -2.382913        -0.803134
 C        -3.063971        -3.189703        -2.106008
 H         1.950405         0.566766         0.128754
 H         1.973352        -1.126600         0.167795
 H         1.710824        -0.176587        -1.435731
 H        -2.939030        -0.834521         1.033134
 H        -3.891435         1.222525        -0.258717
 H        -3.043055        -0.561115        -1.910388
 H        -2.822697        -2.856312         0.082395
 H        -3.544748        -4.131073        -2.006077
 H        -3.519363        -2.829926        -2.986627
 H        -2.048725        -3.377196        -2.183813
