19
Iteration:  1389charge 0 multiplicity 1
 C         1.431910         0.302466        -0.146563
 C         0.056902         0.207119        -0.238338
 C        -1.048340        -0.138752         0.046098
 C        -2.518988        -0.306211         0.313260
 O        -3.027688         0.980955         0.492587
 C        -3.158122        -0.990376        -0.945404
 O        -4.468746        -1.360840        -0.839034
 C        -3.520788        -2.447578        -0.855660
 C        -3.509504        -3.351514        -2.062077
 H         1.744566        -0.419171        -0.828984
 H         1.836872         1.148474        -0.677286
 H         1.914842         0.107119         0.765781
 H        -2.846721        -0.932621         1.168202
 H        -2.882050         1.261621         1.450524
 H        -2.960303        -0.520474        -1.917459
 H        -3.177525        -2.853453         0.029350
 H        -4.241038        -4.193610        -1.909341
 H        -3.801808        -2.808492        -2.939023
 H        -2.545748        -3.882864        -2.231414
