19
Iteration:  2371charge 0 multiplicity 1
 C         1.435531        -0.027243        -0.545917
 C         0.046813         0.044219        -0.021404
 C        -1.173448        -0.054328         0.190739
 C        -2.641174        -0.273334         0.459958
 O        -3.281022         0.951173         0.741842
 C        -3.184190        -0.780580        -0.878431
 O        -4.492432        -1.602729        -0.683672
 C        -3.180203        -2.195596        -1.044757
 C        -3.304136        -3.125732        -2.353488
 H         1.522000        -0.404127        -1.598672
 H         1.956435         0.875816        -0.433179
 H         1.934649        -0.704352         0.076664
 H        -2.786453        -1.164621         1.153928
 H        -2.649704         1.722794         0.690205
 H        -3.295561        -0.055407        -1.672609
 H        -2.667471        -2.799805        -0.152977
 H        -3.857347        -3.957404        -2.049042
 H        -3.574415        -2.608694        -3.253160
 H        -2.314949        -3.406163        -2.643611
