19
Iteration:  2638
 C         1.557248         0.132556        -0.190676
 C         0.010322        -0.010849        -0.223469
 C        -1.201590        -0.257584        -0.012515
 C        -2.529300        -0.287098         0.331750
 O        -3.251193         0.951356         0.696666
 C        -3.199932        -0.878801        -0.819856
 O        -4.410165        -1.655048        -0.525280
 C        -3.282973        -2.296361        -1.083104
 C        -3.461440        -2.842767        -2.418703
 H         1.859324         0.419761         0.742938
 H         2.177395        -0.801187        -0.299157
 H         1.748405         0.849919        -1.048186
 H        -2.780797        -1.116445         1.086892
 H        -2.531242         1.584865         0.890071
 H        -3.265402        -0.126612        -1.655281
 H        -2.846158        -3.049015        -0.276823
 H        -3.896901        -3.837366        -2.519972
 H        -4.181670        -2.232395        -3.024960
 H        -2.521778        -3.028571        -2.914540
