19
Iteration:   751
 C         1.552251         0.426634         0.029005
 C         0.118297        -0.125612         0.003354
 C        -1.102433        -0.147900        -0.044227
 C        -2.542486        -0.262829         0.166626
 O        -3.167076         1.126652         0.153168
 C        -3.182217        -1.007889        -0.947580
 O        -4.551781        -1.482316        -0.699098
 C        -3.450624        -2.423485        -0.823684
 C        -3.412409        -3.353628        -1.982550
 H         1.892111         0.783259        -0.932819
 H         1.483181         1.271132         0.688930
 H         2.124961        -0.268120         0.657810
 H        -2.655542        -0.629506         1.189617
 H        -2.930392         1.737895        -0.507452
 H        -2.902387        -0.437123        -1.810001
 H        -2.910725        -2.960054        -0.005404
 H        -4.265771        -4.158161        -1.794801
 H        -3.772275        -2.879002        -2.944840
 H        -2.438441        -3.914164        -1.915449
