19
Iteration:  4084charge 0 multiplicity 1
 C         1.560955         0.209912        -0.108926
 C         0.182788         0.023461        -0.055709
 C        -0.992286        -0.274562         0.041632
 C        -2.467925        -0.482717         0.369822
 O        -3.091366         0.772527         0.887376
 C        -3.279205        -0.871618        -0.834784
 O        -4.537197        -1.717588        -0.574185
 C        -3.374373        -2.218632        -1.297489
 C        -3.735129        -2.606320        -2.721849
 H         2.033047        -0.581354        -0.578485
 H         1.692113         1.230377        -0.539822
 H         2.157746         0.328389         0.881028
 H        -2.508205        -1.209792         1.237741
 H        -2.391951         1.098755         1.475755
 H        -3.474715        -0.034526        -1.484904
 H        -2.618465        -2.863391        -0.899261
 H        -4.410147        -3.538651        -2.640440
 H        -4.404091        -1.807351        -3.021975
 H        -2.864410        -2.754819        -3.426831
