19
Iteration:  3325charge 0 multiplicity 1
 C         1.471890         0.020151        -0.440892
 C         0.068937        -0.113269        -0.167443
 C        -1.127434        -0.133154         0.119093
 C        -2.613654        -0.330644         0.456947
 O        -3.263723         0.783952         0.943507
 C        -3.219550        -0.785906        -0.856983
 O        -4.452505        -1.601283        -0.557251
 C        -3.254051        -2.230609        -1.108924
 C        -3.376606        -2.745984        -2.593590
 H         1.420692         0.768099        -1.187793
 H         2.103794         0.446756         0.382196
 H         2.062085        -0.874140        -0.851183
 H        -2.756773        -1.129053         1.114616
 H        -2.680498         1.442831         1.322445
 H        -3.287883        -0.244698        -1.765653
 H        -2.907301        -2.952729        -0.357032
 H        -3.929560        -3.629892        -2.883471
 H        -3.696183        -1.948771        -3.177908
 H        -2.377824        -2.859285        -2.938037
