19
Iteration:   683
 C         1.471606         0.149159        -0.198356
 C         0.084573         0.213024         0.161168
 C        -1.113306        -0.103983         0.137313
 C        -2.631120        -0.158556         0.277270
 O        -3.150219         1.199742         0.171131
 C        -3.239797        -0.976710        -0.933203
 O        -4.496392        -1.539086        -0.907829
 C        -3.416953        -2.432081        -0.831785
 C        -3.301287        -3.506508        -1.924106
 H         1.714498         0.955553        -0.956816
 H         1.978108         0.279329         0.672220
 H         1.848731        -0.804115        -0.606374
 H        -2.866182        -0.594557         1.226353
 H        -2.401670         1.874042         0.255382
 H        -3.254320        -0.632388        -1.915670
 H        -3.184835        -2.672206         0.163514
 H        -3.992161        -4.381410        -1.932476
 H        -3.666568        -2.925004        -2.820551
 H        -2.188344        -3.754148        -1.856022
