19
Iteration:   760charge 0 multiplicity 1
 C         1.528914         0.435883         0.052473
 C         0.160584        -0.020456         0.072319
 C        -1.059257        -0.139142        -0.074701
 C        -2.543646        -0.261784         0.172511
 O        -3.132129         1.127399         0.170080
 C        -3.212129        -0.950125        -0.946284
 O        -4.538317        -1.568796        -0.715882
 C        -3.468756        -2.429605        -0.842776
 C        -3.488672        -3.358557        -1.976891
 H         2.091799         0.424657        -0.923076
 H         1.603392         1.337941         0.582604
 H         2.246367        -0.346762         0.465282
 H        -2.679220        -0.705241         1.218078
 H        -2.913001         1.356164        -0.720532
 H        -3.231403        -0.545952        -1.937554
 H        -3.212569        -2.830433         0.116814
 H        -4.259387        -4.177205        -1.831954
 H        -3.586056        -2.834940        -2.982114
 H        -2.448879        -3.807937        -2.027790
