19
Iteration:   935charge 0 multiplicity 1
 C         1.430976         0.180218        -0.126575
 C         0.020063        -0.012951        -0.097307
 C        -1.184918        -0.009206         0.101635
 C        -2.578780        -0.177970         0.224643
 O        -3.113783         1.206666         0.367149
 C        -3.223651        -0.982327        -0.916928
 O        -4.487440        -1.530529        -0.788296
 C        -3.379684        -2.461597        -0.832168
 C        -3.270145        -3.343552        -2.031002
 H         1.892896        -0.804223         0.230521
 H         1.951638         0.157193        -1.024076
 H         1.870423         0.977865         0.529630
 H        -2.939284        -0.644426         1.111262
 H        -3.342992         1.590891        -0.523262
 H        -2.956583        -0.586322        -1.890741
 H        -2.888209        -2.836492         0.052338
 H        -3.824244        -4.187830        -1.844789
 H        -3.666197        -2.811650        -2.866124
 H        -2.355756        -3.854209        -2.192755
