19
Iteration:  2757
 C         1.457738         0.341772        -0.275850
 C         0.073377        -0.079704        -0.216561
 C        -1.052842        -0.303136         0.228965
 C        -2.431315        -0.306624         0.379972
 O        -3.190203         0.873796         0.719664
 C        -3.097478        -1.016262        -0.823547
 O        -4.530863        -1.499480        -0.608599
 C        -3.438428        -2.371298        -1.077709
 C        -3.541994        -2.876877        -2.527023
 H         1.685218         1.460469        -0.243876
 H         1.770048         0.095590         0.794921
 H         2.160176        -0.246588        -0.954938
 H        -2.467558        -0.934049         1.241897
 H        -2.753852         1.640784         0.300944
 H        -2.886989        -0.402729        -1.716312
 H        -3.163992        -3.147442        -0.283508
 H        -4.223928        -3.677536        -2.692900
 H        -3.741096        -1.984982        -3.182001
 H        -2.583328        -3.338478        -2.574785
