19
Iteration:  3891charge 0 multiplicity 1
 C         1.404757        -0.074970        -0.550120
 C        -0.019153        -0.172424        -0.093699
 C        -1.200886        -0.070494         0.209138
 C        -2.658845        -0.250307         0.357304
 O        -3.211795         0.736184         1.266085
 C        -3.275012        -0.749577        -0.889477
 O        -4.420826        -1.606253        -0.651935
 C        -3.250435        -2.220379        -1.224035
 C        -3.238749        -2.682896        -2.627130
 H         1.840269         0.693044        -1.462508
 H         2.195068        -0.028062         0.266400
 H         1.732838        -0.990889        -1.016396
 H        -2.526595        -1.261581         0.960939
 H        -2.657878         1.525098         1.104330
 H        -3.282460        -0.059505        -1.808047
 H        -2.942362        -2.899543        -0.364081
 H        -3.440858        -3.772658        -2.766555
 H        -3.852348        -2.016613        -3.233213
 H        -2.203729        -2.505215        -2.944386
