19
Iteration:  1203charge 0 multiplicity 1
 C         1.565312         0.044080        -0.255710
 C         0.059653        -0.176111        -0.007343
 C        -1.207319        -0.092435         0.055181
 C        -2.636046        -0.082632         0.231604
 O        -3.163446         1.232661         0.255481
 C        -3.358732        -0.861525        -0.930032
 O        -4.495461        -1.697677        -0.513096
 C        -3.268642        -2.353412        -0.878075
 C        -3.179698        -3.139447        -2.142889
 H         1.741710         1.062639        -0.593504
 H         2.094120        -0.051935         0.836041
 H         1.994210        -0.738168        -0.926473
 H        -2.974830        -0.691179         1.118434
 H        -3.995931         1.046957         0.831790
 H        -3.539433        -0.390891        -1.930976
 H        -2.818816        -2.737220         0.014749
 H        -3.739662        -4.058314        -2.045727
 H        -3.840490        -2.624521        -2.841011
 H        -2.178038        -3.314577        -2.503312
