19
Iteration:  4049charge 0 multiplicity 1
 C         1.454127         0.232360        -0.160648
 C         0.107009        -0.123929        -0.047282
 C        -1.054799        -0.292320         0.160012
 C        -2.478788        -0.455302         0.425442
 O        -3.027398         0.897437         0.804004
 C        -3.227205        -0.908302        -0.820100
 O        -4.404178        -1.767609        -0.492102
 C        -3.382122        -2.245166        -1.334902
 C        -3.726877        -2.550323        -2.770038
 H         1.923623        -0.104717        -1.112062
 H         1.442897         1.258378        -0.421907
 H         1.980349         0.048646         0.743334
 H        -2.720259        -1.256878         1.219426
 H        -2.619402         0.995543         1.685362
 H        -3.379130        -0.093728        -1.462645
 H        -2.694944        -2.880153        -0.833920
 H        -4.608342        -3.179403        -2.878658
 H        -3.897271        -1.624332        -3.277281
 H        -2.918764        -3.024664        -3.350809
