19
Iteration:  1496
 C         1.469195         0.253081        -0.374492
 C        -0.027963         0.176183        -0.177760
 C        -1.061410        -0.108774         0.269129
 C        -2.487071        -0.302765         0.418726
 O        -3.122919         0.990527         0.528217
 C        -2.985411        -1.034919        -0.810392
 O        -4.409517        -1.424661        -0.894104
 C        -3.405975        -2.461793        -0.874452
 C        -3.610507        -3.191774        -2.116938
 H         1.864423        -0.535588         0.366989
 H         1.539053         0.098279        -1.409549
 H         1.963386         1.271020        -0.192771
 H        -2.895881        -0.787441         1.295988
 H        -3.480908         0.821132        -0.409029
 H        -2.623378        -0.656580        -1.738097
 H        -3.609063        -3.017668         0.004820
 H        -4.550605        -3.808333        -2.093050
 H        -3.804757        -2.511543        -2.921252
 H        -2.669933        -3.750135        -2.336506
