19
Iteration:  2074
 C         1.477785         0.262842        -0.325566
 C         0.020108        -0.020913        -0.206513
 C        -1.128522        -0.206632         0.143831
 C        -2.561311        -0.240126         0.346141
 O        -3.172303         1.022219         0.751472
 C        -3.129294        -0.898435        -0.897965
 O        -4.403165        -1.522290        -0.840700
 C        -3.287407        -2.400217        -0.891536
 C        -3.529171        -3.154968        -2.211814
 H         2.028047         0.017882         0.638003
 H         1.984733        -0.401471        -1.014524
 H         1.769484         1.267594        -0.702331
 H        -2.891382        -1.056195         1.121758
 H        -3.073891         1.652740         0.031826
 H        -3.036744        -0.185589        -1.761509
 H        -3.012896        -3.030077        -0.055491
 H        -4.528545        -3.666164        -2.066130
 H        -3.727565        -2.663611        -3.165319
 H        -2.754202        -3.912037        -2.354989
