19
Iteration:  1323
 C         1.573258         0.249775        -0.172502
 C         0.181682        -0.079015         0.058734
 C        -1.075050        -0.030883        -0.007028
 C        -2.525581        -0.223767         0.170964
 O        -3.197917         1.066025         0.399571
 C        -3.223705        -0.961940        -0.946521
 O        -4.492269        -1.558030        -0.583607
 C        -3.399709        -2.428293        -0.882571
 C        -3.544078        -3.200201        -2.143161
 H         1.517764         0.232831        -1.187638
 H         1.829084         1.266425         0.097375
 H         2.295161        -0.376682         0.275843
 H        -2.337972        -0.685433         1.158165
 H        -3.799100         1.320686        -0.262290
 H        -2.992847        -0.481010        -1.905419
 H        -2.964716        -2.952350        -0.098474
 H        -4.169722        -4.104414        -2.008038
 H        -3.741943        -2.534181        -2.964095
 H        -2.542796        -3.601661        -2.375091
