19
Iteration:  3504charge 0 multiplicity 1
 C         1.538435         0.386871        -0.238379
 C         0.086254         0.108900        -0.099973
 C        -1.004381        -0.424939         0.041171
 C        -2.500241        -0.471545         0.463050
 O        -2.932722         0.780456         0.830768
 C        -3.280947        -0.899449        -0.789442
 O        -4.632459        -1.462194        -0.662014
 C        -3.491232        -2.319574        -1.153572
 C        -3.563914        -2.865089        -2.608074
 H         2.162738        -0.623869        -0.522681
 H         1.591577         1.322601        -0.842070
 H         1.847957         0.612265         0.791194
 H        -2.640533        -1.268485         1.180492
 H        -2.216078         1.114586         1.420488
 H        -3.181566        -0.010817        -1.516480
 H        -3.322097        -3.301147        -0.467242
 H        -4.050552        -3.822591        -2.849032
 H        -4.027345        -2.102905        -3.374365
 H        -2.638346        -3.081815        -3.171167
