19
Iteration:  4452charge 0 multiplicity 1
 C         1.553912        -0.059712        -0.436382
 C         0.072861        -0.074081        -0.028178
 C        -1.112937        -0.240217         0.208908
 C        -2.600843        -0.409121         0.469732
 O        -3.220541         0.804447         1.041797
 C        -3.404225        -0.791855        -0.785892
 O        -4.326215        -1.835602        -0.467643
 C        -3.284726        -2.192518        -1.366005
 C        -3.467545        -2.300684        -2.879250
 H         1.902475         0.969049        -0.875395
 H         2.304492        -0.416701         0.314725
 H         1.617694        -0.680814        -1.298864
 H        -2.701233        -1.215128         1.159322
 H        -2.675905         1.056518         1.804757
 H        -3.899736         0.015341        -1.307434
 H        -2.580242        -3.022593        -0.934601
 H        -3.886384        -3.308447        -3.010732
 H        -4.140124        -1.547843        -3.221244
 H        -2.380323        -2.429816        -3.270525
