19
Iteration:  4539
 C         1.457059         0.057107        -0.351787
 C        -0.001082        -0.243875        -0.051372
 C        -1.203394        -0.280960         0.161144
 C        -2.588984        -0.439615         0.569137
 O        -3.031374         0.817881         0.922626
 C        -3.424706        -0.849849        -0.713366
 O        -4.287194        -1.941962        -0.429201
 C        -3.241071        -2.114119        -1.410173
 C        -3.547451        -2.210980        -2.888939
 H         1.882896         0.681420        -1.249627
 H         1.720057         0.458505         0.655361
 H         1.981563        -0.865841        -0.453778
 H        -2.688111        -1.146095         1.423404
 H        -2.258522         1.394684         0.939762
 H        -3.912522         0.096443        -1.052862
 H        -2.289965        -2.562561        -1.080885
 H        -3.714573        -3.237029        -3.194357
 H        -4.395856        -1.721885        -3.237640
 H        -2.738540        -2.034975        -3.677411
