19
Iteration:  2487
 C         1.370596         0.023557        -0.518976
 C        -0.017680        -0.145373        -0.049619
 C        -1.179018        -0.114079         0.233852
 C        -2.619766        -0.292645         0.444173
 O        -3.111352         1.084157         0.723547
 C        -3.291883        -0.901191        -0.818984
 O        -4.556112        -1.639728        -0.679673
 C        -3.213696        -2.358803        -0.961254
 C        -3.163033        -2.843469        -2.383947
 H         1.884157        -0.980086        -0.570493
 H         1.350326         0.428284        -1.582858
 H         2.118043         0.706078         0.056063
 H        -2.957788        -0.889859         1.262968
 H        -3.137324         1.379632        -0.216511
 H        -3.267024        -0.200441        -1.694323
 H        -2.876955        -3.045494        -0.204896
 H        -3.491273        -3.923875        -2.499376
 H        -3.599503        -2.138181        -3.170954
 H        -2.083372        -2.747135        -2.686058
