19
Iteration:  2394charge 0 multiplicity 1
 C         1.354625        -0.025760        -0.466288
 C        -0.074022        -0.119192        -0.226494
 C        -1.190296        -0.141696         0.145373
 C        -2.662683        -0.175754         0.377922
 O        -3.278614         1.027771         0.869657
 C        -3.179894        -0.818032        -0.882172
 O        -4.357890        -1.533739        -0.673565
 C        -3.166980        -2.302885        -0.982692
 C        -3.225298        -3.068643        -2.362052
 H         1.646412        -0.479444        -1.420016
 H         1.514519         1.048160        -0.551124
 H         1.998183        -0.369033         0.326307
 H        -2.840013        -0.943376         1.202475
 H        -2.716546         1.802467         0.792030
 H        -3.261419        -0.302827        -1.837172
 H        -3.033037        -3.010743        -0.062528
 H        -3.869433        -3.892817        -2.247121
 H        -3.414319        -2.449265        -3.191287
 H        -2.218209        -3.363725        -2.663104
