19
Iteration:   893
 C         1.527129         0.203632        -0.043894
 C         0.114953         0.155017         0.104897
 C        -1.093531        -0.048205        -0.002770
 C        -2.538920        -0.137059         0.216392
 O        -3.121195         1.146588         0.160057
 C        -3.233219        -1.003794        -1.003408
 O        -4.502961        -1.551307        -0.644197
 C        -3.415914        -2.449732        -0.871396
 C        -3.416556        -3.386872        -2.083692
 H         2.020080        -0.829086        -0.193492
 H         1.946412         0.792329        -0.889236
 H         1.922807         0.798988         0.843714
 H        -2.708533        -0.710463         1.225497
 H        -3.852505         1.075061         0.748493
 H        -3.116711        -0.514115        -1.958294
 H        -3.230156        -3.027768         0.050808
 H        -4.243358        -4.191485        -1.959414
 H        -3.751605        -2.914742        -3.019259
 H        -2.430748        -3.867145        -2.193376
