19
Iteration:  2321
 C         1.505281         0.073213        -0.408521
 C         0.011379         0.028866        -0.043295
 C        -1.167116        -0.030788         0.101184
 C        -2.619568        -0.267908         0.395821
 O        -3.254534         1.015202         0.608189
 C        -3.153774        -0.987382        -0.797135
 O        -4.388470        -1.548223        -0.577242
 C        -3.391717        -2.463364        -0.998328
 C        -3.362255        -2.978744        -2.407916
 H         1.541231         0.442498        -1.412688
 H         2.092584         0.825597         0.240102
 H         2.045647        -0.942394        -0.410754
 H        -2.653102        -1.050950         1.161239
 H        -2.568108         1.658324         0.819846
 H        -2.941365        -0.360959        -1.676860
 H        -3.046590        -3.138186        -0.307906
 H        -3.913046        -3.965097        -2.303676
 H        -3.876630        -2.261825        -3.028038
 H        -2.375415        -3.046282        -2.949977
