19
Iteration:  1392charge 0 multiplicity 1
 C         1.444353         0.299250        -0.152338
 C         0.052397         0.201875        -0.224140
 C        -1.037203        -0.160117         0.044118
 C        -2.513430        -0.308498         0.309487
 O        -3.038308         1.002117         0.501914
 C        -3.165053        -0.993534        -0.945164
 O        -4.462818        -1.356599        -0.852508
 C        -3.520484        -2.458991        -0.860809
 C        -3.512433        -3.339693        -2.044616
 H         1.708659        -0.443861        -0.893389
 H         1.829325         1.194021        -0.726520
 H         1.932647         0.240327         0.805536
 H        -2.787460        -1.019675         1.081774
 H        -2.960894         1.246931         1.473334
 H        -3.053469        -0.588810        -1.988632
 H        -3.209866        -2.989537         0.089594
 H        -4.218634        -4.111272        -1.878701
 H        -3.727990        -2.790565        -2.954134
 H        -2.576410        -3.818857        -2.214058
