19
Iteration:  1502charge 0 multiplicity 1
 C         1.461394         0.215435        -0.379172
 C         0.027367         0.198594        -0.184732
 C        -1.111843        -0.057865         0.270164
 C        -2.474300        -0.349753         0.475029
 O        -3.128529         1.010514         0.498640
 C        -3.030285        -1.038218        -0.777773
 O        -4.364577        -1.407214        -0.885399
 C        -3.476653        -2.452303        -0.887781
 C        -3.591697        -3.212774        -2.157095
 H         1.988430        -0.370849         0.368975
 H         1.687627        -0.059235        -1.463266
 H         1.737995         1.247972        -0.185382
 H        -2.766194        -1.135928         1.250523
 H        -3.547429         1.166285        -0.338551
 H        -2.668122        -0.635408        -1.764805
 H        -3.333427        -3.152220         0.049776
 H        -4.419346        -3.911649        -2.055189
 H        -3.835399        -2.482464        -2.972770
 H        -2.700900        -3.826276        -2.286205
