19
Iteration:   692
 C         1.484129         0.216973        -0.132191
 C         0.015414         0.159302         0.051697
 C        -1.168901        -0.107704         0.142375
 C        -2.564147        -0.198790         0.245507
 O        -3.132398         1.174759         0.169880
 C        -3.247554        -0.935997        -0.925048
 O        -4.511914        -1.531102        -0.902387
 C        -3.379738        -2.464221        -0.785944
 C        -3.314997        -3.458316        -1.921608
 H         1.914772         0.823753        -0.971569
 H         2.044366         0.450195         0.762282
 H         1.759951        -0.794710        -0.465652
 H        -2.973581        -0.580401         1.203849
 H        -2.295187         1.736576         0.187501
 H        -2.910173        -0.398860        -1.838326
 H        -3.264234        -2.736982         0.224219
 H        -3.972173        -4.268138        -1.701008
 H        -3.650171        -3.014468        -2.852873
 H        -2.351152        -3.922629        -2.224374
