19
Iteration:   557
 C         1.471059        -0.181940        -0.275879
 C         0.027491         0.041273         0.204186
 C        -1.179522         0.059440         0.009402
 C        -2.732749        -0.014949         0.165338
 O        -3.357094         1.249754         0.142356
 C        -3.246975        -0.838016        -0.958150
 O        -4.518113        -1.636047        -0.706418
 C        -3.290956        -2.356530        -0.760913
 C        -2.928927        -3.406671        -1.930040
 H         2.229013         0.387931         0.275047
 H         1.702916        -1.326881        -0.319155
 H         1.386838        -0.033181        -1.330898
 H        -3.169199        -0.295214         1.123066
 H        -2.898627         1.852657         0.676791
 H        -3.243364        -0.441359        -2.015498
 H        -2.966655        -2.784411         0.278489
 H        -3.540999        -4.275624        -1.725907
 H        -3.170877        -2.821983        -2.783994
 H        -1.879340        -3.580822        -1.896095
