19
Iteration:  2454
 C         1.428131         0.012029        -0.514404
 C        -0.016155         0.005565        -0.105645
 C        -1.157081        -0.290978         0.101359
 C        -2.634555        -0.323551         0.461909
 O        -3.146700         1.147944         0.778038
 C        -3.345537        -0.928790        -0.779294
 O        -4.591682        -1.588533        -0.637975
 C        -3.296510        -2.342937        -1.006373
 C        -3.014333        -2.848312        -2.392629
 H         1.622539        -1.031643        -0.953719
 H         1.502166         0.699782        -1.447658
 H         2.255088         0.206406         0.326938
 H        -2.922154        -0.987421         1.264905
 H        -3.196305         1.364449        -0.151866
 H        -3.335372        -0.204760        -1.641693
 H        -3.197506        -3.052735        -0.173486
 H        -3.297029        -3.962868        -2.520269
 H        -3.355102        -2.171951        -3.280153
 H        -1.946035        -3.082971        -2.107557
