19
Iteration:  2054
 C         1.392889         0.219947        -0.382807
 C        -0.000281        -0.085901        -0.185109
 C        -1.180581        -0.132907         0.123862
 C        -2.551561        -0.282126         0.382368
 O        -3.155128         0.994746         0.731769
 C        -3.120100        -0.916788        -0.923236
 O        -4.463600        -1.399800        -0.798455
 C        -3.339025        -2.343406        -0.939003
 C        -3.383895        -3.268128        -2.188248
 H         2.046812        -0.134863         0.508713
 H         1.887736        -0.170792        -1.236233
 H         1.383170         1.306299        -0.487680
 H        -2.702709        -0.899696         1.414532
 H        -2.504110         1.707227         0.475799
 H        -2.637813        -0.410299        -1.789079
 H        -3.120007        -2.888811        -0.084118
 H        -4.354587        -3.776810        -2.248289
 H        -3.563456        -2.558921        -3.061693
 H        -2.458169        -3.860842        -2.359221
