19
Iteration:  1427
 C         1.593058         0.418380        -0.314505
 C         0.214787        -0.067839        -0.019472
 C        -1.041145        -0.144910         0.086869
 C        -2.507511        -0.302492         0.288715
 O        -3.147751         0.981369         0.486430
 C        -3.212471        -0.960756        -0.957000
 O        -4.552395        -1.354080        -0.850629
 C        -3.513287        -2.430446        -0.866052
 C        -3.486333        -3.309402        -2.035450
 H         2.193028        -0.527172        -0.577211
 H         1.330348         1.123708        -1.113235
 H         2.187157         0.993201         0.469689
 H        -2.477180        -1.049512         1.087735
 H        -3.765786         1.130662         1.264395
 H        -2.996028        -0.488954        -1.941770
 H        -3.602239        -3.024251         0.155957
 H        -4.345631        -3.928422        -2.158245
 H        -3.411760        -2.711596        -2.975386
 H        -2.579215        -3.859687        -1.875238
