19
Iteration:  1910charge 0 multiplicity 1
 C         1.411942        -0.088128        -0.502344
 C         0.012717        -0.041622         0.038968
 C        -1.183064        -0.073007         0.148839
 C        -2.664237        -0.186386         0.305769
 O        -3.290203         1.126936         0.503986
 C        -3.201990        -0.803152        -0.913137
 O        -4.410299        -1.691414        -0.499036
 C        -3.183625        -2.276024        -0.987657
 C        -3.248654        -3.085768        -2.241935
 H         1.448637        -1.061491        -1.145143
 H         1.579150         0.792913        -1.092272
 H         2.252496        -0.122026         0.241703
 H        -2.993327        -0.902235         1.092836
 H        -2.909526         1.493247         1.315018
 H        -3.277219        -0.161362        -1.760585
 H        -2.462146        -2.717761        -0.267750
 H        -4.122247        -3.783015        -2.387755
 H        -3.480371        -2.282760        -2.975840
 H        -2.257752        -3.453667        -2.556020
