19
Iteration:   566charge 0 multiplicity 1
 C         1.374424        -0.201311        -0.250924
 C         0.021399         0.031070         0.142143
 C        -1.203377         0.118427         0.067161
 C        -2.669530         0.012334         0.168159
 O        -3.314219         1.256426         0.113082
 C        -3.293595        -0.925400        -0.921404
 O        -4.528378        -1.566821        -0.724465
 C        -3.267775        -2.427856        -0.764749
 C        -2.925799        -3.376819        -1.927598
 H         2.074596         0.564211         0.106431
 H         1.829955        -1.245001        -0.135988
 H         1.405341         0.120319        -1.337183
 H        -2.765189        -0.637522         1.127502
 H        -2.997464         1.767203         0.830832
 H        -2.980000        -0.516291        -1.879703
 H        -2.890860        -2.743564         0.275007
 H        -3.547368        -4.287355        -1.937023
 H        -3.245717        -2.935133        -2.869975
 H        -1.954181        -3.750620        -1.848074
