19
Iteration:  2086
 C         1.552571         0.220197        -0.314685
 C         0.067110         0.070494        -0.166814
 C        -1.093369        -0.185628         0.175322
 C        -2.575804        -0.292282         0.340573
 O        -3.160679         1.003967         0.716758
 C        -3.144807        -0.882422        -0.950267
 O        -4.487758        -1.535291        -0.709313
 C        -3.324104        -2.346641        -0.998276
 C        -3.534500        -3.228402        -2.252816
 H         2.029077         0.341913         0.738775
 H         1.977939        -0.507848        -0.954307
 H         1.627229         1.230502        -0.739661
 H        -2.720144        -0.776601         1.412513
 H        -3.387123         1.469185        -0.103219
 H        -2.782502        -0.499074        -1.949739
 H        -2.942748        -2.799150        -0.123692
 H        -4.521330        -3.721237        -2.107711
 H        -3.557447        -2.386640        -2.969911
 H        -2.819444        -3.995894        -2.594151
