19
Iteration:  1177
 C         1.457975        -0.027367        -0.213788
 C        -0.044418        -0.101083        -0.176084
 C        -1.274782        -0.082990         0.047161
 C        -2.632973        -0.102475         0.283176
 O        -3.228194         1.212054         0.278727
 C        -3.227579        -0.892948        -0.891131
 O        -4.494239        -1.623736        -0.565813
 C        -3.236909        -2.360625        -0.889219
 C        -3.101569        -3.151806        -2.106640
 H         2.000184         0.966697        -0.221403
 H         1.779509        -0.543486         0.671465
 H         1.752134        -0.718393        -1.056255
 H        -2.925113        -0.710816         1.174849
 H        -2.797792         1.599389         1.101587
 H        -3.434811        -0.322492        -1.773463
 H        -2.640951        -2.681065         0.012602
 H        -3.619489        -4.144737        -1.911177
 H        -3.917640        -2.801956        -2.826257
 H        -2.030367        -3.298059        -2.514628
