19
Iteration:  4980charge 0 multiplicity 1
 C         1.574552         0.201670        -0.050518
 C         0.162217        -0.125042        -0.067556
 C        -1.026875        -0.084618        -0.099032
 C        -2.423965        -0.536715         0.282611
 O        -3.068268         0.414340         1.261821
 C        -3.341770        -0.819666        -0.885657
 O        -4.426012        -1.618265        -0.555581
 C        -3.385220        -2.143443        -1.418899
 C        -3.813434        -2.426833        -2.778231
 H         1.628844         0.620423         0.958103
 H         2.308495        -0.621747        -0.094475
 H         1.861874         0.968102        -0.827673
 H        -2.340494        -1.454579         0.779858
 H        -2.570151         1.218798         0.987794
 H        -3.435714        -0.019851        -1.671981
 H        -2.886176        -2.882667        -0.927170
 H        -4.369258        -3.412146        -2.962075
 H        -4.364129        -1.506512        -3.179890
 H        -2.974584        -2.339089        -3.413345
