19
Iteration:  3708
 C         1.518078         0.150326        -0.413162
 C        -0.000345        -0.135881        -0.173772
 C        -1.161920        -0.323073         0.110827
 C        -2.531524        -0.406952         0.493438
 O        -3.092642         0.822146         1.017316
 C        -3.393004        -0.789237        -0.774658
 O        -4.469348        -1.611353        -0.718020
 C        -3.281072        -2.196930        -1.167733
 C        -3.387684        -2.691379        -2.590224
 H         1.952180         0.556221         0.543434
 H         2.051926        -0.772629        -0.675102
 H         1.552159         1.085943        -1.094403
 H        -2.784040        -1.180153         1.223443
 H        -2.422939         1.508050         0.807851
 H        -3.512149         0.151866        -1.432761
 H        -2.998534        -3.106569        -0.487759
 H        -3.481786        -3.843008        -2.485791
 H        -4.273668        -2.297061        -3.252725
 H        -2.352525        -2.651636        -3.019319
