19
Iteration:  1627
 C         1.505936         0.117691        -0.274774
 C        -0.008697         0.046282        -0.314687
 C        -1.132249        -0.086113         0.084029
 C        -2.639383        -0.255692         0.384672
 O        -3.075393         1.088501         0.624817
 C        -3.243819        -0.859314        -0.868459
 O        -4.545001        -1.630838        -0.762139
 C        -3.342462        -2.313101        -0.913344
 C        -3.340870        -3.232006        -2.223435
 H         1.909664         0.823122         0.530397
 H         1.816840        -0.871160        -0.023913
 H         1.761905         0.407818        -1.328121
 H        -2.712979        -0.892314         1.304116
 H        -2.465524         1.680657         1.040212
 H        -3.113088        -0.302495        -1.769202
 H        -2.802584        -2.753533        -0.014046
 H        -3.989162        -4.022575        -1.863306
 H        -3.827659        -2.721789        -3.010594
 H        -2.347816        -3.561691        -2.446854
