19
Iteration:   235charge 0 multiplicity 1
 C         1.537766         0.244019        -0.078755
 C         0.063228         0.098938         0.064260
 C        -1.157405        -0.082499         0.113813
 C        -2.658728        -0.139060         0.161796
 O        -3.239560         1.162554         0.011806
 C        -3.108605        -0.945424        -1.012665
 O        -4.431927        -1.469532        -0.827162
 C        -3.384834        -2.479245        -0.740634
 C        -3.369423        -3.550433        -1.780370
 H         1.640093         0.548596        -1.149484
 H         2.114621         0.915303         0.538326
 H         1.857692        -0.831607        -0.280703
 H        -2.920437        -0.638372         1.106800
 H        -2.866690         1.971261         0.443538
 H        -2.730540        -0.575403        -2.021664
 H        -3.232374        -2.688067         0.354493
 H        -4.277509        -4.208763        -1.576035
 H        -3.545363        -3.017275        -2.737287
 H        -2.471035        -4.190965        -1.666310
