19
Iteration:   375charge 0 multiplicity 1
 C         1.392108         0.073237        -0.015731
 C        -0.070072        -0.028025        -0.199333
 C        -1.221073        -0.012189         0.190112
 C        -2.745398         0.016796         0.233285
 O        -3.202683         1.400661        -0.037564
 C        -3.165013        -0.925287        -0.809293
 O        -4.438821        -1.726610        -0.609135
 C        -3.078888        -2.450797        -0.853258
 C        -3.285400        -3.419221        -2.013666
 H         1.623593        -1.047183        -0.017570
 H         1.955581         0.516432        -0.840302
 H         1.766010         0.215037         1.032749
 H        -2.987763        -0.273420         1.270663
 H        -2.246189         1.730567         0.076776
 H        -3.111873        -0.452583        -1.844681
 H        -2.590737        -2.875451        -0.014510
 H        -3.718262        -4.404442        -1.716807
 H        -3.961345        -3.067575        -2.790964
 H        -2.495697        -4.045097        -2.493272
