19
Iteration:  1433
 C         1.566857         0.396153        -0.342783
 C         0.184291        -0.091672         0.026039
 C        -1.041783        -0.096611         0.116425
 C        -2.446127        -0.340917         0.265558
 O        -3.144496         0.982815         0.464214
 C        -3.234265        -0.958447        -0.938172
 O        -4.550804        -1.344677        -0.826284
 C        -3.500093        -2.416559        -0.883290
 C        -3.490846        -3.302110        -2.053277
 H         2.334016        -0.278462        -0.621928
 H         1.438666         1.049676        -1.251705
 H         1.983745         0.968191         0.442516
 H        -2.498767        -0.933003         1.230919
 H        -3.851531         0.922067         1.207005
 H        -2.888401        -0.408688        -1.835566
 H        -3.715508        -2.905512        -0.007820
 H        -4.340345        -4.048621        -2.136261
 H        -3.307257        -2.757294        -2.962548
 H        -2.590842        -3.971274        -1.849828
