19
Iteration:  1763charge 0 multiplicity 1
 C         1.420901        -0.048923        -0.283040
 C        -0.001626        -0.003498        -0.055135
 C        -1.157159        -0.118493         0.105927
 C        -2.646459        -0.103992         0.269585
 O        -3.135277         1.210463         0.460556
 C        -3.470277        -0.852454        -0.842855
 O        -4.331817        -1.915027        -0.321992
 C        -3.163941        -2.256259        -1.065891
 C        -3.358295        -3.011347        -2.385941
 H         1.829742         0.328314        -1.246981
 H         2.112459         0.184151         0.691075
 H         1.729843        -1.123225        -0.506386
 H        -2.855786        -0.761046         1.232693
 H        -2.535590         1.825240        -0.062109
 H        -3.787213        -0.194218        -1.744944
 H        -2.528847        -2.673407        -0.357608
 H        -3.852914        -4.044136        -2.400695
 H        -3.920267        -2.332068        -3.129090
 H        -2.306179        -3.080201        -2.871317
