19
Iteration:  2646charge 0 multiplicity 1
 C         1.562925         0.166516        -0.219351
 C         0.013557        -0.020374        -0.169995
 C        -1.155023        -0.294378        -0.005859
 C        -2.631299        -0.285348         0.396467
 O        -3.193242         0.937005         0.700218
 C        -3.247851        -0.839514        -0.844180
 O        -4.394926        -1.634961        -0.528629
 C        -3.286181        -2.301901        -1.103127
 C        -3.468964        -2.882224        -2.454507
 H         1.900041         0.801671         0.742966
 H         1.985138        -0.850318        -0.324598
 H         1.997570         0.828545        -0.983877
 H        -2.699722        -0.954723         1.250286
 H        -2.495168         1.613959         0.761331
 H        -3.287440        -0.330730        -1.872721
 H        -2.877720        -3.177721        -0.446933
 H        -3.889866        -3.878437        -2.204632
 H        -4.181760        -2.244185        -2.979137
 H        -2.598450        -3.041683        -3.155844
