19
Iteration:   117
 C         1.502206         0.293784        -0.121369
 C         0.071377         0.002932         0.028070
 C        -1.123077        -0.038179         0.079596
 C        -2.562361        -0.105453         0.186525
 O        -3.252847         1.225018         0.106202
 C        -3.088241        -1.016200        -0.923172
 O        -4.444273        -1.389033        -0.924829
 C        -3.473669        -2.514321        -0.741096
 C        -3.373972        -3.652109        -1.756557
 H         1.760183         1.227702         0.445172
 H         2.144348        -0.468973         0.449775
 H         1.851050         0.448728        -1.111450
 H        -2.945115        -0.529107         1.183475
 H        -2.961952         1.689919        -0.717972
 H        -2.762845        -0.919553        -1.959420
 H        -3.507764        -2.806162         0.406555
 H        -4.182122        -4.430519        -1.652698
 H        -3.430559        -3.102824        -2.711685
 H        -2.350522        -3.998443        -1.560718
