19
Iteration:  4076
 C         1.604932         0.233501        -0.100302
 C         0.149832         0.010609        -0.042968
 C        -1.023529        -0.356645        -0.004686
 C        -2.507819        -0.403102         0.442958
 O        -3.089907         0.781442         0.864359
 C        -3.291546        -0.867100        -0.743936
 O        -4.485145        -1.721192        -0.579745
 C        -3.308834        -2.228769        -1.331871
 C        -3.754954        -2.603872        -2.747980
 H         2.022441        -0.472958        -0.825295
 H         1.659375         1.237401        -0.694618
 H         2.117909         0.231578         0.983268
 H        -2.597380        -1.209663         1.140059
 H        -2.461813         1.112505         1.537032
 H        -3.360628        -0.126453        -1.627789
 H        -2.815554        -2.986871        -0.628812
 H        -4.487040        -3.475239        -2.707852
 H        -4.378350        -1.707840        -3.120669
 H        -3.018764        -2.879851        -3.534528
