19
Iteration:  2697
 C         1.543721         0.304791        -0.309623
 C         0.128220         0.011135         0.148962
 C        -1.082137        -0.314461         0.181198
 C        -2.518158        -0.344131         0.367647
 O        -3.022761         1.055432         0.753288
 C        -3.350648        -0.906139        -0.884018
 O        -4.568412        -1.619772        -0.561035
 C        -3.360634        -2.392690        -1.189090
 C        -3.539108        -3.045353        -2.572945
 H         1.937540         1.310581        -0.013878
 H         2.261599        -0.450486        -0.050119
 H         1.607255         0.338579        -1.380146
 H        -2.754247        -1.032933         1.243841
 H        -2.621734         1.689477         0.120911
 H        -3.517468        -0.245159        -1.740692
 H        -2.796253        -3.000154        -0.545416
 H        -4.146016        -4.010937        -2.665916
 H        -3.972833        -2.275863        -3.210949
 H        -2.503770        -2.941462        -2.999017
