19
Iteration:  3985charge 0 multiplicity 1
 C         1.424617         0.139007        -0.372318
 C         0.061415        -0.070418         0.072124
 C        -1.141591        -0.269555         0.136204
 C        -2.509893        -0.505873         0.472770
 O        -3.047906         0.896326         0.848063
 C        -3.323228        -0.914677        -0.700135
 O        -4.491250        -1.695632        -0.598185
 C        -3.283215        -2.270577        -1.292245
 C        -3.496599        -2.539651        -2.739827
 H         1.493854         0.129042        -1.458729
 H         1.791859         1.104697         0.053624
 H         2.212432        -0.665004         0.000451
 H        -2.650084        -1.127313         1.318507
 H        -2.382360         1.446450         1.280945
 H        -3.345480        -0.136860        -1.399007
 H        -2.817830        -2.998681        -0.683530
 H        -4.189665        -3.407266        -3.010551
 H        -3.902495        -1.582658        -3.064891
 H        -2.472389        -2.690893        -3.220098
