19
Iteration:  2424charge 0 multiplicity 1
 C         1.367662         0.003153        -0.455925
 C        -0.070292        -0.176227        -0.298501
 C        -1.160964        -0.107173         0.160220
 C        -2.605885        -0.255856         0.456081
 O        -3.193796         1.031888         0.803510
 C        -3.270700        -0.827269        -0.780764
 O        -4.498461        -1.628398        -0.748227
 C        -3.241621        -2.310489        -0.952284
 C        -3.095058        -2.900910        -2.323608
 H         1.760622        -0.718363        -1.217843
 H         1.452502         0.954200        -0.891205
 H         1.846521         0.023453         0.469397
 H        -2.707816        -1.079461         1.231150
 H        -2.827577         1.758431         0.223069
 H        -3.354912        -0.244511        -1.683762
 H        -3.144659        -2.912976        -0.094249
 H        -3.726244        -3.784418        -2.378981
 H        -3.354996        -2.262757        -3.177618
 H        -2.058903        -3.176824        -2.298932
