19
Iteration:  1401charge 0 multiplicity 1
 C         1.551654         0.317734        -0.252251
 C         0.047397         0.186372        -0.140348
 C        -1.104033        -0.246043         0.060873
 C        -2.483245        -0.318943         0.232116
 O        -3.086630         1.052127         0.530007
 C        -3.128693        -0.994819        -0.965418
 O        -4.525463        -1.389665        -0.847988
 C        -3.479651        -2.434728        -0.845522
 C        -3.517720        -3.309853        -2.033877
 H         2.002446        -0.517071        -0.674099
 H         1.777918         1.308390        -0.670814
 H         1.887108         0.416956         0.729459
 H        -2.564321        -1.026938         1.067641
 H        -3.173624         1.129794         1.527608
 H        -2.778069        -0.628631        -1.961448
 H        -3.598962        -2.963738         0.060048
 H        -4.314702        -4.062260        -1.948418
 H        -3.665947        -2.764908        -2.938375
 H        -2.513733        -3.758369        -2.068859
