19
Iteration:  2902
 C         1.498421         0.248646        -0.431563
 C         0.074521         0.028054        -0.060063
 C        -1.117545        -0.176484         0.143662
 C        -2.509613        -0.443322         0.475332
 O        -3.148387         0.775458         0.901120
 C        -3.111974        -0.958124        -0.886428
 O        -4.541164        -1.383119        -0.775111
 C        -3.512256        -2.402927        -1.052875
 C        -3.415224        -2.873886        -2.460027
 H         1.572557        -0.258224        -1.332565
 H         1.917389         1.283048        -0.379237
 H         2.307556        -0.222014         0.324112
 H        -2.565392        -1.019158         1.367391
 H        -3.146563         1.470015         0.223323
 H        -2.749371        -0.414280        -1.742519
 H        -3.310402        -3.064609        -0.109926
 H        -4.028730        -3.709247        -2.689789
 H        -3.511803        -2.062125        -3.141112
 H        -2.443312        -3.230636        -2.541610
