19
Iteration:  3768
 C         1.337672         0.053802        -0.616076
 C        -0.006196        -0.097417        -0.038298
 C        -1.124577        -0.311455         0.365863
 C        -2.563737        -0.474340         0.570039
 O        -3.125743         0.910907         0.962705
 C        -3.261502        -0.841238        -0.777651
 O        -4.563605        -1.599315        -0.676525
 C        -3.232788        -2.219480        -1.186221
 C        -3.256453        -2.629243        -2.682604
 H         1.958614         0.903608        -0.254705
 H         2.065031        -0.790351        -0.634651
 H         1.149111         0.184338        -1.702107
 H        -2.795012        -1.227776         1.402431
 H        -2.487479         1.637273         0.788547
 H        -3.366244        -0.008165        -1.407345
 H        -2.804006        -2.955069        -0.535001
 H        -3.698657        -3.586098        -2.788352
 H        -3.601696        -1.947525        -3.351849
 H        -2.215205        -2.854857        -2.973339
