19
Iteration:  1099charge 0 multiplicity 1
 C         1.390901        -0.201002        -0.423958
 C        -0.002127        -0.122107         0.021293
 C        -1.217573        -0.016416         0.108813
 C        -2.636197        -0.026970         0.294130
 O        -3.366872         1.211837         0.274311
 C        -3.160083        -0.817044        -0.858420
 O        -4.485916        -1.533737        -0.639078
 C        -3.199589        -2.321005        -0.816788
 C        -3.008449        -3.218128        -2.099590
 H         1.957602         0.440560         0.371169
 H         1.719869        -1.187991        -0.200082
 H         1.516289         0.196442        -1.477313
 H        -2.977573        -0.761687         1.075524
 H        -3.973600         1.066583         0.962672
 H        -2.980530        -0.462099        -1.870047
 H        -2.914355        -2.909207         0.111500
 H        -3.664561        -4.171459        -2.015642
 H        -3.243612        -2.610101        -3.031380
 H        -1.911277        -3.640849        -2.085656
