19
Iteration:  2996charge 0 multiplicity 1
 C         1.437744         0.240193        -0.404544
 C         0.033806        -0.253194        -0.111104
 C        -1.140435        -0.335656         0.239648
 C        -2.600821        -0.356073         0.447046
 O        -3.151258         0.945979         0.766367
 C        -3.261715        -0.784996        -0.820219
 O        -4.388190        -1.614027        -0.597627
 C        -3.245482        -2.252387        -1.178329
 C        -3.448444        -2.825757        -2.513327
 H         2.194264        -0.612748        -0.463580
 H         1.532048         0.928958        -1.240533
 H         1.770069         0.854703         0.345955
 H        -2.969019        -1.051204         1.224476
 H        -2.520785         1.634180         1.052148
 H        -3.353886        -0.128141        -1.712375
 H        -2.940703        -3.014249        -0.545642
 H        -4.112696        -3.688651        -2.391897
 H        -3.901259        -2.070388        -3.220652
 H        -2.469692        -3.242363        -2.927501
