19
Iteration:  3919charge 0 multiplicity 1
 C         1.439546        -0.018067        -0.476580
 C        -0.010044        -0.184264        -0.165665
 C        -1.192079        -0.125128         0.103348
 C        -2.536482        -0.448939         0.474919
 O        -3.259083         0.747935         1.098499
 C        -3.310258        -0.755265        -0.750307
 O        -4.470219        -1.580830        -0.687629
 C        -3.199610        -2.109605        -1.255284
 C        -3.294709        -2.646022        -2.572252
 H         1.661676         0.520639        -1.279650
 H         1.922514         0.352034         0.407750
 H         2.064893        -0.969632        -0.667033
 H        -2.401470        -1.283287         1.084533
 H        -2.531961         1.408323         1.053468
 H        -3.317394         0.095294        -1.356738
 H        -2.825678        -2.783795        -0.532602
 H        -3.304662        -3.754699        -2.577049
 H        -4.147135        -2.341701        -3.193224
 H        -2.329119        -2.359845        -3.075835
