19
Iteration:  4406
 C         1.381266        -0.050718        -0.427561
 C        -0.019280        -0.146623        -0.203957
 C        -1.188061        -0.017358         0.087583
 C        -2.506755        -0.522415         0.561946
 O        -3.171528         0.642080         1.089712
 C        -3.275679        -0.795790        -0.678096
 O        -4.448547        -1.651390        -0.608255
 C        -3.193888        -2.113399        -1.276101
 C        -3.394723        -2.457946        -2.825643
 H         1.833229         0.903876        -0.133199
 H         1.801550        -0.768079         0.283635
 H         1.806495        -0.417798        -1.390620
 H        -2.540833        -1.269789         1.284435
 H        -2.494269         1.250268         1.397207
 H        -3.352854         0.065802        -1.232182
 H        -2.690537        -2.800395        -0.654950
 H        -3.929235        -3.334688        -3.090226
 H        -3.877675        -1.594766        -3.093956
 H        -2.384067        -2.531906        -3.196931
