19
Iteration:  4627
 C         1.551891        -0.009020        -0.314058
 C         0.038857        -0.211096        -0.168889
 C        -1.171057        -0.332769         0.094042
 C        -2.569087        -0.427217         0.531408
 O        -3.208478         0.802364         1.149960
 C        -3.367270        -0.853772        -0.672831
 O        -4.307825        -1.857895        -0.555604
 C        -3.177446        -2.068585        -1.377277
 C        -3.591314        -2.278737        -2.879433
 H         1.689260        -0.181760        -1.459886
 H         1.813779         1.095516        -0.185431
 H         2.268077        -0.547217         0.258092
 H        -2.629875        -1.238174         1.395391
 H        -2.830148         1.589284         0.721219
 H        -3.623738         0.059157        -1.346081
 H        -2.228023        -2.574372        -1.114164
 H        -3.799910        -3.345470        -2.859265
 H        -4.384964        -1.616131        -3.146670
 H        -2.697564        -2.087703        -3.581698
