19
Iteration:  3278charge 0 multiplicity 1
 C         1.450357         0.055741        -0.446575
 C         0.013972        -0.025671        -0.123547
 C        -1.133665        -0.227783         0.167089
 C        -2.641995        -0.352188         0.444817
 O        -3.007723         0.995394         0.915972
 C        -3.532565        -0.791006        -0.716677
 O        -4.480766        -1.767380        -0.660718
 C        -3.257307        -2.222748        -1.243032
 C        -3.263699        -2.758397        -2.548482
 H         1.810830         0.995124        -0.802499
 H         2.002426        -0.367894         0.434586
 H         1.644327        -0.930778        -1.195703
 H        -2.794173        -1.076918         1.170433
 H        -2.344721         1.298763         1.575829
 H        -3.775927         0.061804        -1.411324
 H        -2.679909        -2.842459        -0.535338
 H        -3.626988        -3.738712        -2.620939
 H        -3.861016        -2.175591        -3.314777
 H        -2.292443        -2.892597        -3.056739
