19
Iteration:  3197
 C         1.468418        -0.066073        -0.469096
 C         0.066455        -0.115635        -0.097486
 C        -1.122566        -0.236814         0.235459
 C        -2.586537        -0.334931         0.505751
 O        -3.275000         1.048863         0.642921
 C        -3.256916        -0.882643        -0.694003
 O        -4.419848        -1.815886        -0.479401
 C        -3.252566        -2.295599        -1.113403
 C        -3.379709        -2.562836        -2.696158
 H         1.892854         0.900662         0.190906
 H         2.117020        -0.841164        -0.047658
 H         1.675969         0.343816        -1.447618
 H        -2.664207        -0.918597         1.393836
 H        -2.936110         1.670680         1.324296
 H        -3.507508        -0.098427        -1.378520
 H        -2.478276        -2.945284        -0.642136
 H        -3.878843        -3.608525        -2.975412
 H        -4.051801        -1.782564        -3.110654
 H        -2.403551        -2.413338        -3.245501
