19
Iteration:  4587
 C         1.491725         0.019203        -0.261842
 C         0.041024        -0.122192        -0.130095
 C        -1.119480        -0.239837         0.145788
 C        -2.632225        -0.443544         0.456208
 O        -2.983975         0.889807         1.077213
 C        -3.490465        -0.839630        -0.736965
 O        -4.356424        -2.099119        -0.438007
 C        -3.302574        -2.113162        -1.402487
 C        -3.481469        -2.207038        -2.873675
 H         1.587465         0.032508        -1.375308
 H         1.995863         0.867998         0.234440
 H         1.992496        -0.953023        -0.089522
 H        -2.807117        -1.186501         1.164981
 H        -2.270831         1.370555         0.603528
 H        -3.840007         0.045197        -1.244830
 H        -2.600142        -2.959274        -1.014197
 H        -3.943908        -3.085517        -3.391822
 H        -4.199916        -1.309600        -3.190644
 H        -2.650231        -2.028438        -3.536017
