19
Iteration:  2100charge 0 multiplicity 1
 C         1.517900         0.261905        -0.302275
 C         0.129113         0.084240        -0.060343
 C        -1.056136        -0.100943         0.147807
 C        -2.491896        -0.263308         0.322336
 O        -3.147650         0.956448         0.638642
 C        -3.214566        -0.959435        -0.911775
 O        -4.487010        -1.477253        -0.627192
 C        -3.382232        -2.403943        -1.017250
 C        -3.534344        -3.175327        -2.301172
 H         2.064572         0.277633         0.662707
 H         1.920906        -0.676014        -0.725439
 H         1.842478         1.068309        -0.941407
 H        -2.800721        -1.132826         1.038447
 H        -3.539427         1.282980        -0.185119
 H        -3.318045        -0.268732        -1.756607
 H        -3.036775        -3.094235        -0.235054
 H        -4.408878        -3.822358        -2.261791
 H        -3.672824        -2.687605        -3.298058
 H        -2.613629        -3.806084        -2.280141
