19
Iteration:  1580charge 0 multiplicity 1
 C         1.508118         0.178440        -0.359521
 C         0.082504         0.001957        -0.143137
 C        -1.141746        -0.110148        -0.003401
 C        -2.543003        -0.250885         0.313213
 O        -3.176233         0.961524         0.700684
 C        -3.172279        -0.907185        -0.944202
 O        -4.506959        -1.436476        -0.771033
 C        -3.425003        -2.357423        -0.903501
 C        -3.358945        -3.227459        -2.080283
 H         1.921383         0.335558         0.661083
 H         1.983990        -0.778963        -0.587741
 H         1.786883         1.009956        -1.058101
 H        -2.696393        -1.080196         1.076977
 H        -3.349715         1.693876         0.119552
 H        -3.154065        -0.428584        -1.945202
 H        -3.206964        -2.855163         0.159535
 H        -4.043618        -4.072794        -2.117011
 H        -3.509827        -2.490673        -2.898961
 H        -2.306845        -3.538810        -2.116089
