19
Iteration:   813
 C         1.483829         0.311704         0.116279
 C         0.082641         0.253145        -0.002488
 C        -1.084011        -0.015494         0.046627
 C        -2.519193        -0.141371         0.121659
 O        -3.070949         1.091536         0.193417
 C        -3.116860        -1.027089        -0.912808
 O        -4.445781        -1.550801        -0.657363
 C        -3.470579        -2.569790        -0.889888
 C        -3.659020        -3.465990        -2.110446
 H         2.125974        -0.219550        -0.691223
 H         1.917370         1.274787        -0.025747
 H         2.030591        -0.111913         1.048194
 H        -2.639579        -0.503431         1.224313
 H        -2.784961         1.510831        -0.592604
 H        -3.067993        -0.580582        -1.927422
 H        -3.013336        -2.945163        -0.009577
 H        -4.316482        -4.235015        -1.895710
 H        -3.932295        -2.893491        -2.981961
 H        -2.762241        -3.963575        -2.442619
