19
Iteration:  3402
 C         1.441588         0.146063        -0.468966
 C         0.058093         0.128247         0.018101
 C        -1.106311        -0.157814         0.275038
 C        -2.485984        -0.443045         0.448956
 O        -3.107634         0.764221         0.891838
 C        -3.142839        -0.900229        -0.890999
 O        -4.463048        -1.486916        -0.713630
 C        -3.406417        -2.349325        -1.136839
 C        -3.535071        -2.830422        -2.593992
 H         1.574509        -0.012873        -1.547692
 H         1.878080         1.124637        -0.164945
 H         2.056880        -0.733114         0.135646
 H        -2.560408        -1.230630         1.204989
 H        -2.527058         1.186299         1.553372
 H        -3.237166        -0.241826        -1.739685
 H        -2.927690        -2.917993        -0.293951
 H        -4.409956        -3.468599        -2.774735
 H        -3.913941        -1.989975        -3.079937
 H        -2.785927        -3.161002        -3.229144
