19
Iteration:  3817charge 0 multiplicity 1
 C         1.272107        -0.039643        -0.670426
 C        -0.049497        -0.194926        -0.181291
 C        -1.136718        -0.250614         0.352394
 C        -2.588952        -0.288992         0.519713
 O        -3.268576         0.871570         1.072329
 C        -3.182483        -0.911661        -0.701493
 O        -4.344686        -1.548068        -0.654097
 C        -3.257960        -2.336481        -1.145461
 C        -3.207255        -2.518113        -2.709884
 H         1.713782         0.988902        -0.424650
 H         1.976261        -0.560229        -0.005651
 H         1.587288        -0.430025        -1.601449
 H        -2.961217        -1.067035         1.152123
 H        -3.302999         1.708760         0.583967
 H        -3.150294        -0.140415        -1.594085
 H        -2.897736        -3.174273        -0.457294
 H        -4.007872        -3.269616        -2.976362
 H        -3.117883        -1.470149        -3.276781
 H        -2.328099        -3.168659        -2.908658
