19
Iteration:  4300
 C         1.376404         0.221283        -0.583015
 C        -0.006488        -0.120318        -0.116186
 C        -1.092583        -0.434145         0.416659
 C        -2.518296        -0.575213         0.527834
 O        -3.098151         0.704245         1.106861
 C        -3.218393        -0.813736        -0.846701
 O        -4.490304        -1.428330        -0.775757
 C        -3.371049        -2.282550        -1.170715
 C        -3.382050        -2.551976        -2.757337
 H         1.914061         0.575691         0.380898
 H         1.885336        -0.683029        -0.849210
 H         1.427986         1.029050        -1.177727
 H        -2.867505        -1.320708         1.267976
 H        -2.350714         1.216385         1.463075
 H        -3.035725        -0.037899        -1.565900
 H        -2.965027        -2.821564        -0.258348
 H        -4.078463        -3.321360        -3.038144
 H        -3.722117        -1.711289        -3.304099
 H        -2.355183        -2.559326        -3.127646
