19
Iteration:   780charge 0 multiplicity 1
 C         1.592137         0.376971         0.065083
 C         0.104412         0.238229         0.112424
 C        -1.041881        -0.157819         0.024857
 C        -2.534909        -0.203570         0.049396
 O        -3.018546         1.139287         0.207497
 C        -3.272879        -1.057815        -0.968088
 O        -4.628369        -1.524119        -0.677829
 C        -3.432783        -2.549950        -0.828120
 C        -3.502190        -3.426496        -2.070220
 H         2.021482         0.088908        -0.999683
 H         1.850064         1.378920         0.360563
 H         2.112959        -0.384293         0.723238
 H        -2.639263        -0.568561         1.141039
 H        -3.288126         1.710107        -0.570753
 H        -3.073147        -0.677004        -1.998965
 H        -2.992402        -2.992872         0.023046
 H        -4.309775        -4.070160        -1.889089
 H        -3.791936        -2.835438        -2.940031
 H        -2.591179        -4.001982        -2.237759
