19
Iteration:  3282charge 0 multiplicity 1
 C         1.476017         0.024552        -0.448043
 C        -0.019898        -0.009513        -0.117116
 C        -1.194879        -0.220371         0.160689
 C        -2.615755        -0.320927         0.460255
 O        -3.001294         0.957645         0.915040
 C        -3.506980        -0.776387        -0.751312
 O        -4.475419        -1.762015        -0.670903
 C        -3.265728        -2.246097        -1.195592
 C        -3.274905        -2.733619        -2.586988
 H         1.789080         0.972345        -0.871133
 H         2.111247        -0.244189         0.425345
 H         1.605604        -0.781374        -1.116096
 H        -2.710083        -1.124964         1.265646
 H        -2.337460         1.223519         1.558220
 H        -3.688706         0.048571        -1.395234
 H        -2.546516        -2.698934        -0.507908
 H        -3.730264        -3.766878        -2.487587
 H        -3.850565        -2.314730        -3.339168
 H        -2.303271        -2.941511        -2.972662
