19
Iteration:  2277charge 0 multiplicity 1
 C         1.567294         0.282886        -0.231941
 C         0.095168        -0.050545        -0.281455
 C        -1.027732        -0.242967         0.126181
 C        -2.586617        -0.325458         0.354740
 O        -3.205953         1.038269         0.480340
 C        -3.306579        -0.933559        -0.836080
 O        -4.480860        -1.622111        -0.491323
 C        -3.340346        -2.420014        -0.987336
 C        -3.478066        -2.942619        -2.403086
 H         1.794323         1.100327        -0.851574
 H         1.865605         0.421489         0.848371
 H         2.035097        -0.667900        -0.618810
 H        -2.886197        -0.882746         1.294116
 H        -2.646927         1.451242         1.153870
 H        -3.287671        -0.153936        -1.591783
 H        -3.000174        -3.004084        -0.244409
 H        -4.056876        -3.879875        -2.378882
 H        -3.630698        -2.209840        -3.143183
 H        -2.388132        -3.133739        -2.469833
