19
Iteration:  4086charge 0 multiplicity 1
 C         1.553021         0.208439        -0.117384
 C         0.180912         0.018052        -0.051362
 C        -1.001484        -0.250201         0.059192
 C        -2.447834        -0.504486         0.352374
 O        -3.085764         0.766397         0.892660
 C        -3.287724        -0.875623        -0.860835
 O        -4.538310        -1.713622        -0.571931
 C        -3.394142        -2.224380        -1.292740
 C        -3.729704        -2.604859        -2.707944
 H         2.075359        -0.605067        -0.548323
 H         1.794038         1.265122        -0.564906
 H         2.155962         0.340825         0.936121
 H        -2.488775        -1.187009         1.189586
 H        -2.395312         1.146442         1.481930
 H        -3.528181         0.063852        -1.470883
 H        -2.580857        -2.899242        -0.922367
 H        -4.367125        -3.574505        -2.626735
 H        -4.437252        -1.786262        -3.079039
 H        -2.828655        -2.712233        -3.376435
