19
Iteration:  3749charge 0 multiplicity 1
 C         1.312442         0.088894        -0.608259
 C        -0.005233        -0.019974        -0.023429
 C        -1.140611        -0.397079         0.320746
 C        -2.669494        -0.321349         0.487122
 O        -3.021373         0.895315         1.047052
 C        -3.294532        -0.822442        -0.820035
 O        -4.423751        -1.621881        -0.653362
 C        -3.378542        -2.259955        -1.224310
 C        -3.252704        -2.707735        -2.649021
 H         2.009057         0.720837         0.089215
 H         1.836352        -0.869374        -0.476654
 H         1.412770         0.370096        -1.583201
 H        -2.895198        -1.078604         1.225801
 H        -2.270259         1.509917         1.091852
 H        -3.246403        -0.148224        -1.730230
 H        -2.992586        -3.128376        -0.618550
 H        -3.579385        -3.741564        -2.969684
 H        -3.872426        -1.995924        -3.235709
 H        -2.247952        -2.627806        -3.141677
