19
Iteration:  2242
 C         1.453205         0.310009        -0.208181
 C         0.157163        -0.016821         0.139416
 C        -1.069846        -0.154495        -0.141418
 C        -2.583145        -0.315358         0.226207
 O        -2.969274         1.062298         0.521703
 C        -3.416309        -0.879257        -0.842535
 O        -4.507430        -1.716728        -0.493796
 C        -3.364672        -2.361504        -1.082862
 C        -3.519176        -3.057446        -2.320008
 H         1.640636         1.367981        -0.588733
 H         2.236206         0.196936         0.584924
 H         1.781843        -0.386743        -1.008669
 H        -2.594438        -1.019545         1.060275
 H        -2.578394         1.276872         1.378044
 H        -3.517255        -0.266900        -1.738374
 H        -2.743983        -2.959086        -0.463463
 H        -4.227090        -3.880366        -2.453334
 H        -3.823835        -2.488405        -3.201049
 H        -2.541961        -3.554992        -2.541735
