19
Iteration:  2924charge 0 multiplicity 1
 C         1.460026         0.211478        -0.485975
 C         0.117547         0.112690         0.015198
 C        -1.025868        -0.193478         0.285027
 C        -2.487467        -0.425156         0.488013
 O        -3.108956         0.801525         0.815836
 C        -3.244889        -0.931363        -0.767260
 O        -4.578780        -1.432343        -0.751267
 C        -3.529429        -2.378935        -1.122247
 C        -3.359260        -2.900825        -2.550845
 H         1.619322        -0.482346        -1.248353
 H         1.774083         1.271678        -0.698616
 H         2.293624         0.046295         0.377366
 H        -2.563825        -1.162683         1.262937
 H        -2.716846         1.435272         0.179117
 H        -3.306823        -0.253723        -1.579981
 H        -3.304239        -3.246258        -0.363981
 H        -4.149348        -3.636310        -2.584630
 H        -3.425191        -2.206313        -3.367927
 H        -2.497569        -3.488590        -2.617855
