19
Iteration:  3975charge 0 multiplicity 1
 C         1.466176         0.080032        -0.377810
 C         0.008139        -0.051245        -0.013403
 C        -1.149636        -0.201767         0.213005
 C        -2.551559        -0.456490         0.524846
 O        -3.031424         0.866061         0.878833
 C        -3.285929        -0.847184        -0.821296
 O        -4.511667        -1.717725        -0.589300
 C        -3.316575        -2.310235        -1.199225
 C        -3.461351        -2.542371        -2.746319
 H         1.457448         0.331741        -1.358359
 H         1.761719         1.098240        -0.000108
 H         2.187494        -0.779477        -0.051944
 H        -2.624157        -1.269913         1.159506
 H        -2.196077         1.168967         1.270435
 H        -3.353464        -0.084122        -1.554916
 H        -2.792661        -3.099950        -0.689710
 H        -3.988825        -3.477986        -3.154552
 H        -3.950929        -1.686996        -3.229592
 H        -2.435207        -2.519117        -3.241938
