19
Iteration:  1742
 C         1.354573        -0.101774        -0.289038
 C        -0.052919         0.114363        -0.125820
 C        -1.254522        -0.110962         0.170454
 C        -2.625685        -0.165396         0.380379
 O        -3.102237         1.213775         0.364860
 C        -3.251308        -0.967686        -0.806650
 O        -4.313364        -1.792940        -0.352728
 C        -3.143770        -2.369301        -1.055666
 C        -3.396434        -2.955153        -2.416546
 H         1.629047         0.679204        -1.027371
 H         1.845584         0.061522         0.814618
 H         1.696245        -1.038289        -0.820707
 H        -3.135513        -0.790148         1.155194
 H        -2.260381         1.683244         0.363894
 H        -3.751974        -0.397532        -1.637034
 H        -2.497867        -2.871108        -0.396318
 H        -4.012775        -3.912181        -2.201923
 H        -4.100226        -2.242752        -2.985232
 H        -2.425192        -3.115243        -3.017508
