19
Iteration:  1787
 C         1.545989        -0.057767        -0.285489
 C         0.081363        -0.214849        -0.005414
 C        -1.203387        -0.101584        -0.076999
 C        -2.706682        -0.061403         0.246793
 O        -3.193100         1.279814         0.547211
 C        -3.512733        -0.865619        -0.753626
 O        -4.395121        -1.937456        -0.364502
 C        -3.141115        -2.227270        -1.093785
 C        -3.290121        -2.966280        -2.380204
 H         1.810341         0.236120        -1.326118
 H         2.031475         0.600152         0.574484
 H         2.202234        -0.967044        -0.234034
 H        -2.624700        -0.503989         1.275920
 H        -3.271661         1.808571        -0.278233
 H        -3.795735        -0.133275        -1.538559
 H        -2.446539        -2.681224        -0.398407
 H        -3.619957        -4.030703        -2.059856
 H        -4.012861        -2.639785        -3.155557
 H        -2.254089        -3.114946        -2.866889
