19
Iteration:  3518charge 0 multiplicity 1
 C         1.493468         0.407838        -0.194359
 C         0.096664         0.053772        -0.082347
 C        -1.024710        -0.308250         0.103777
 C        -2.400027        -0.566820         0.417348
 O        -2.942458         0.827008         0.844525
 C        -3.285330        -0.924509        -0.806943
 O        -4.584206        -1.494171        -0.627485
 C        -3.592610        -2.305232        -1.236493
 C        -3.594340        -2.878637        -2.663033
 H         2.090796        -0.649256        -0.518718
 H         1.825836         1.054434        -1.068665
 H         1.968851         0.718198         0.689780
 H        -2.548838        -1.200398         1.259350
 H        -2.269588         1.293263         1.349014
 H        -3.237774        -0.190219        -1.571742
 H        -3.100649        -3.000483        -0.506488
 H        -4.104032        -3.826980        -2.613724
 H        -4.162417        -2.189395        -3.338523
 H        -2.465153        -2.961626        -2.882107
