19
Iteration:  2440charge 0 multiplicity 1
 C         1.404053         0.010055        -0.531095
 C        -0.035380        -0.066099        -0.167739
 C        -1.179328        -0.248038         0.080529
 C        -2.653548        -0.245962         0.498039
 O        -3.156243         1.020660         0.759915
 C        -3.339867        -0.861309        -0.700225
 O        -4.569365        -1.580331        -0.693172
 C        -3.331711        -2.300454        -1.008038
 C        -2.986028        -2.938101        -2.347150
 H         1.746678        -0.907241        -0.966703
 H         1.756999         0.897014        -1.153984
 H         1.994933         0.123088         0.449768
 H        -2.751006        -0.716440         1.471800
 H        -3.048619         1.660243         0.012184
 H        -3.170062        -0.189520        -1.585713
 H        -2.820533        -2.903241        -0.149413
 H        -3.629430        -3.813496        -2.532240
 H        -3.213792        -2.211619        -3.141988
 H        -1.915589        -3.071431        -2.632210
