19
Iteration:  1830
 C         1.358240        -0.144805        -0.204190
 C        -0.027786        -0.104092        -0.357488
 C        -1.242176        -0.076908         0.016018
 C        -2.660326        -0.106069         0.310444
 O        -3.176764         1.177208         0.541377
 C        -3.320513        -0.844539        -0.854470
 O        -4.354359        -1.775629        -0.330252
 C        -3.115699        -2.370906        -0.940153
 C        -3.246569        -2.855162        -2.336001
 H         1.961938        -0.295016        -1.131903
 H         1.883977         0.846174         0.167159
 H         1.679947        -0.982107         0.458971
 H        -2.974331        -0.756824         1.203410
 H        -3.499044         1.488847        -0.300106
 H        -3.447687        -0.329211        -1.840289
 H        -2.469126        -2.971135        -0.433646
 H        -3.274237        -3.999690        -2.456293
 H        -4.073862        -2.457446        -2.937118
 H        -2.340068        -2.817907        -2.984540
