19
Iteration:   967
 C         1.482865         0.150256        -0.254336
 C         0.035080        -0.196822        -0.047327
 C        -1.198935        -0.161030         0.097449
 C        -2.647368        -0.193765         0.246636
 O        -3.357257         1.151778         0.254854
 C        -3.174312        -0.887918        -0.915265
 O        -4.455272        -1.441762        -0.748654
 C        -3.365229        -2.380472        -0.791195
 C        -3.132319        -3.278996        -1.970155
 H         1.958717        -0.605256         0.491641
 H         1.790691        -0.007124        -1.261945
 H         1.826871         1.187801         0.021402
 H        -2.908032        -0.749994         1.119612
 H        -2.741422         1.899106         0.518865
 H        -2.901743        -0.383769        -1.848309
 H        -2.851045        -2.779162         0.085918
 H        -3.833217        -4.053633        -1.926956
 H        -3.417272        -2.877097        -2.941552
 H        -2.043140        -3.483386        -2.041894
