19
Iteration:    81charge 0 multiplicity 1
 C         1.498506         0.241542        -0.125312
 C         0.149019         0.088348         0.147676
 C        -1.081745        -0.036610         0.140901
 C        -2.465824        -0.202952         0.057236
 O        -3.300668         1.074035         0.012070
 C        -3.193553        -1.022003        -1.035309
 O        -4.548726        -1.484728        -0.864876
 C        -3.461102        -2.334508        -0.674268
 C        -3.342181        -3.463602        -1.682850
 H         1.900995         0.787932         0.718932
 H         1.902862        -0.700518        -0.252009
 H         1.781832         0.807885        -1.028405
 H        -2.792299        -0.659968         1.018041
 H        -2.765801         1.746053        -0.447219
 H        -2.895414        -0.731056        -2.090190
 H        -3.273671        -2.417306         0.515036
 H        -4.059073        -4.286369        -1.732661
 H        -3.208685        -3.103904        -2.731344
 H        -2.356549        -3.988369        -1.563150
