19
Iteration:   785charge 0 multiplicity 1
 C         1.573834         0.362616         0.038619
 C         0.103277         0.290181         0.123605
 C        -1.049865        -0.148165         0.042943
 C        -2.552551        -0.249317         0.024239
 O        -3.010473         1.196560         0.233397
 C        -3.234757        -1.086980        -0.966379
 O        -4.608972        -1.523368        -0.658076
 C        -3.442829        -2.562399        -0.865068
 C        -3.531718        -3.426703        -2.078016
 H         2.189770        -0.018009        -0.760703
 H         1.934416         1.377719         0.363244
 H         2.065091        -0.369779         0.686115
 H        -2.676729        -0.564074         1.035300
 H        -3.244264         1.571929        -0.602598
 H        -3.176822        -0.817559        -2.017364
 H        -3.029634        -2.951504         0.132993
 H        -4.390177        -4.225434        -1.823556
 H        -3.686819        -2.835200        -3.033208
 H        -2.567894        -3.961095        -2.314085
