19
Iteration:   241charge 0 multiplicity 1
 C         1.473723         0.210616        -0.076768
 C         0.002402         0.132863        -0.011755
 C        -1.167492        -0.095325         0.115187
 C        -2.656361        -0.108040         0.162737
 O        -3.201537         1.143436        -0.001752
 C        -3.112490        -0.973483        -0.975157
 O        -4.423424        -1.455800        -0.834372
 C        -3.309135        -2.438774        -0.707401
 C        -3.388914        -3.565427        -1.803552
 H         1.764595         0.564784        -1.094579
 H         2.038508         0.926260         0.581711
 H         1.913874        -0.838229         0.052041
 H        -2.872161        -0.564539         1.164711
 H        -2.805865         1.829963         0.614787
 H        -2.694516        -0.639907        -1.896893
 H        -3.276387        -2.779848         0.314048
 H        -4.239568        -4.141167        -1.546121
 H        -3.567032        -3.002191        -2.711706
 H        -2.475056        -4.177167        -1.848867
