19
Iteration:  1149charge 0 multiplicity 1
 C         1.422813        -0.152592        -0.253126
 C        -0.055842         0.007910        -0.186279
 C        -1.245630        -0.018147         0.107190
 C        -2.600279        -0.057771         0.264052
 O        -3.253682         1.274914         0.447650
 C        -3.258995        -0.916626        -0.843587
 O        -4.470149        -1.638846        -0.688602
 C        -3.240250        -2.434956        -0.860831
 C        -3.084719        -3.196770        -2.112824
 H         1.953713         0.727497         0.009032
 H         1.722785        -0.963799         0.548570
 H         1.523644        -0.429024        -1.291251
 H        -2.805590        -0.559870         1.242527
 H        -2.882171         1.827875        -0.349345
 H        -3.353990        -0.380578        -1.826480
 H        -2.681944        -2.763073         0.003838
 H        -3.458753        -4.181385        -1.948255
 H        -3.728527        -2.822693        -2.877235
 H        -2.069758        -3.276097        -2.314684
