19
Iteration:  1231
 C         1.497931         0.048307        -0.215736
 C         0.034054        -0.026921         0.046613
 C        -1.197437        -0.103876         0.010901
 C        -2.538607        -0.070032         0.276498
 O        -3.160273         1.254359         0.340861
 C        -3.315986        -0.924682        -0.869585
 O        -4.435133        -1.673094        -0.484197
 C        -3.313343        -2.426716        -0.941246
 C        -3.306507        -3.190520        -2.225380
 H         1.663312         0.922470        -0.892529
 H         2.023932         0.221183         0.645191
 H         2.033781        -0.842087        -0.587589
 H        -2.848078        -0.681426         1.112290
 H        -3.532108         1.285555        -0.566978
 H        -3.385323        -0.542019        -1.886714
 H        -2.901731        -3.039569        -0.090467
 H        -3.898890        -4.125421        -2.038567
 H        -3.760612        -2.524108        -3.018770
 H        -2.295956        -3.513685        -2.641005
