19
Iteration:  2494
 C         1.395049         0.001617        -0.521192
 C         0.013353        -0.155613        -0.063619
 C        -1.213056        -0.146375         0.239696
 C        -2.640312        -0.309821         0.462708
 O        -3.161402         1.092750         0.696897
 C        -3.288220        -0.851556        -0.756377
 O        -4.475144        -1.636469        -0.679148
 C        -3.240011        -2.338226        -1.044339
 C        -3.155751        -2.862734        -2.363787
 H         1.926119        -0.887803        -0.562929
 H         1.372552         0.380341        -1.563037
 H         1.790269         0.829413         0.089600
 H        -2.750468        -0.881734         1.433591
 H        -3.127515         1.751220        -0.040473
 H        -3.137122        -0.388231        -1.749185
 H        -2.792194        -3.020129        -0.199679
 H        -3.663489        -3.813856        -2.498428
 H        -3.826802        -2.316367        -3.009871
 H        -2.170424        -2.886178        -2.884841
