19
Iteration:  1559
 C         1.576049         0.227150        -0.402542
 C         0.174784        -0.033644        -0.004696
 C        -1.055769        -0.079834         0.059821
 C        -2.517926        -0.238350         0.310543
 O        -3.260925         0.880921         0.609148
 C        -3.176192        -0.923008        -0.896884
 O        -4.633799        -1.414007        -0.794118
 C        -3.423850        -2.347633        -0.856949
 C        -3.364439        -3.170669        -2.066693
 H         2.407911         0.189464         0.392408
 H         1.998455        -0.557165        -1.024511
 H         1.688890         1.158188        -1.063597
 H        -2.568508        -1.192231         0.981945
 H        -3.601128         1.272716        -0.266133
 H        -2.990834        -0.580665        -1.929932
 H        -3.185585        -2.826007         0.216082
 H        -4.189589        -3.861183        -2.081092
 H        -3.493994        -2.529783        -2.968408
 H        -2.417140        -3.627961        -2.282367
