19
Iteration:   181
 C         1.529018         0.280178        -0.133833
 C         0.053460         0.121862         0.077060
 C        -1.148740        -0.069942         0.059905
 C        -2.608263        -0.170109         0.136325
 O        -3.234369         1.129242         0.077685
 C        -3.043484        -1.050418        -0.939787
 O        -4.498719        -1.420226        -0.895260
 C        -3.496769        -2.457241        -0.737376
 C        -3.353124        -3.489204        -1.704740
 H         1.659556         1.260392        -0.549493
 H         1.966310         0.063483         0.821008
 H         1.989543        -0.462170        -0.751027
 H        -2.888193        -0.665639         1.132542
 H        -2.583034         1.738718        -0.397968
 H        -2.463478        -0.747110        -1.882090
 H        -3.505599        -2.865138         0.406859
 H        -4.136813        -4.290955        -1.782358
 H        -3.233864        -3.221807        -2.775232
 H        -2.378498        -4.003294        -1.534119
