19
Iteration:   783charge 0 multiplicity 1
 C         1.580382         0.374788         0.050566
 C         0.100546         0.271111         0.120713
 C        -1.044599        -0.153125         0.038149
 C        -2.548996        -0.234266         0.027883
 O        -3.012374         1.171974         0.224565
 C        -3.248545        -1.071412        -0.966203
 O        -4.621848        -1.521237        -0.666294
 C        -3.437510        -2.563900        -0.848636
 C        -3.516746        -3.425100        -2.073868
 H         2.160917        -0.006631        -0.876253
 H         1.877962         1.349129         0.358142
 H         2.112038        -0.402632         0.693186
 H        -2.633764        -0.552395         1.103595
 H        -3.281650         1.668109        -0.613276
 H        -3.133196        -0.771407        -1.997553
 H        -2.998853        -2.959007         0.076488
 H        -4.393392        -4.182630        -1.826443
 H        -3.730779        -2.815257        -3.027263
 H        -2.555869        -3.988579        -2.295358
