19
Iteration:  1611
 C         1.401655         0.121985        -0.290259
 C        -0.017190         0.055078        -0.327164
 C        -1.139055        -0.087339         0.075215
 C        -2.507613        -0.201285         0.367526
 O        -3.115722         1.101404         0.723424
 C        -3.264902        -0.887672        -0.864957
 O        -4.501297        -1.495927        -0.763342
 C        -3.323068        -2.421773        -1.013408
 C        -3.344480        -3.317357        -2.145276
 H         1.630243         0.627883         0.619007
 H         1.997262        -0.843436        -0.162178
 H         2.038768         0.531429        -1.050157
 H        -2.750504        -0.931719         1.185016
 H        -2.349735         1.727361         0.681969
 H        -3.267668        -0.254559        -1.820785
 H        -3.204720        -2.958551        -0.002962
 H        -4.049188        -4.178008        -2.084454
 H        -3.654330        -2.869926        -3.160818
 H        -2.296219        -3.550532        -2.470249
