19
Iteration:  1806
 C         1.401197        -0.105288        -0.210004
 C        -0.003671        -0.253134        -0.168770
 C        -1.193191        -0.051175        -0.078163
 C        -2.614976        -0.073129         0.296564
 O        -3.169345         1.224841         0.537801
 C        -3.452036        -0.808816        -0.814550
 O        -4.363234        -1.843609        -0.349066
 C        -3.136040        -2.321719        -1.003766
 C        -3.232402        -2.947408        -2.370847
 H         1.720481         0.121733        -1.235556
 H         1.755979         0.857060         0.323333
 H         2.077513        -0.911013         0.123538
 H        -2.668712        -0.610826         1.306212
 H        -3.587494         1.521525        -0.315972
 H        -3.939182        -0.037438        -1.505983
 H        -2.313119        -2.692865        -0.454648
 H        -3.426859        -4.033098        -2.364091
 H        -4.083233        -2.482462        -2.936089
 H        -2.347276        -2.990573        -3.033951
