19
Iteration:  1170
 C         1.460684        -0.080117        -0.239694
 C        -0.047737        -0.047304        -0.184081
 C        -1.224840        -0.095002         0.018719
 C        -2.718785        -0.107266         0.305648
 O        -3.246639         1.224784         0.335820
 C        -3.226028        -0.877764        -0.898594
 O        -4.453171        -1.625753        -0.557818
 C        -3.222209        -2.333168        -0.874102
 C        -3.103069        -3.215442        -2.143002
 H         1.888503         0.892963        -0.118586
 H         1.630090        -0.608823         0.823497
 H         1.754372        -0.597018        -1.182208
 H        -3.049177        -0.486277         1.296552
 H        -2.619222         1.786240         0.744256
 H        -3.190845        -0.331848        -1.882196
 H        -2.991957        -2.812974         0.059151
 H        -3.464388        -4.209295        -1.958459
 H        -3.783505        -2.756205        -2.861303
 H        -2.108341        -3.263584        -2.479309
