19
Iteration:  1499
 C         1.473290         0.229923        -0.371246
 C        -0.004646         0.188963        -0.182720
 C        -1.088436        -0.077874         0.268188
 C        -2.473135        -0.328587         0.450756
 O        -3.124645         1.004439         0.514169
 C        -3.013245        -1.034976        -0.785095
 O        -4.380149        -1.419257        -0.893159
 C        -3.445066        -2.457300        -0.880268
 C        -3.602418        -3.197757        -2.136254
 H         1.898676        -0.396122         0.351177
 H         1.593392         0.022289        -1.468450
 H         1.819260         1.214130        -0.192759
 H        -2.853542        -1.020917         1.263880
 H        -3.518106         0.979177        -0.413152
 H        -2.653026        -0.649601        -1.780913
 H        -3.458308        -3.073307        -0.025303
 H        -4.518611        -3.885967        -2.075158
 H        -3.840697        -2.485684        -2.945610
 H        -2.645051        -3.805846        -2.290177
