19
Iteration:  4508charge 0 multiplicity 1
 C         1.445222         0.039658        -0.400031
 C         0.065418        -0.226229        -0.067059
 C        -1.112050        -0.422198         0.249972
 C        -2.557790        -0.315065         0.483101
 O        -3.151631         0.935396         1.035632
 C        -3.358883        -0.805218        -0.792292
 O        -4.307906        -1.994335        -0.511548
 C        -3.223438        -2.153138        -1.400898
 C        -3.574283        -2.288408        -2.867254
 H         1.698791         1.014275        -1.003366
 H         2.025177         0.172052         0.576596
 H         1.918658        -0.866045        -0.674579
 H        -2.723142        -1.004040         1.267367
 H        -2.501746         1.282501         1.687535
 H        -3.896647         0.094000        -1.278003
 H        -2.223683        -2.718322        -1.050313
 H        -3.879129        -3.369221        -2.930495
 H        -4.531297        -1.688847        -3.038565
 H        -2.849192        -1.835429        -3.670754
