19
Iteration:  1400
 C         1.540572         0.315952        -0.240646
 C         0.053044         0.191898        -0.152022
 C        -1.106046        -0.241061         0.061131
 C        -2.482504        -0.317204         0.240496
 O        -3.081288         1.049384         0.525672
 C        -3.132887        -0.993059        -0.964610
 O        -4.517125        -1.384852        -0.849966
 C        -3.482675        -2.442613        -0.846962
 C        -3.518569        -3.309090        -2.031932
 H         1.958232        -0.530504        -0.723358
 H         1.774166         1.288509        -0.660820
 H         1.894554         0.416049         0.752210
 H        -2.573106        -1.058369         1.064638
 H        -3.157162         1.149928         1.551820
 H        -2.830441        -0.639051        -1.962678
 H        -3.561799        -2.978028         0.042754
 H        -4.330744        -4.082249        -1.927753
 H        -3.663881        -2.767529        -2.944467
 H        -2.492809        -3.759216        -2.087152
