19
Iteration:  4426charge 0 multiplicity 1
 C         1.491065        -0.099359        -0.414608
 C         0.057407        -0.106184        -0.147427
 C        -1.110588        -0.135382         0.131399
 C        -2.512919        -0.366517         0.513365
 O        -3.253697         0.715265         1.109461
 C        -3.325721        -0.839731        -0.725311
 O        -4.454768        -1.787243        -0.590556
 C        -3.213800        -2.169656        -1.289300
 C        -3.441270        -2.322169        -2.815970
 H         1.734171         0.924326        -0.512690
 H         2.100997        -0.545761         0.357178
 H         1.717549        -0.391813        -1.503008
 H        -2.449654        -1.221922         1.196853
 H        -2.645159         1.313611         1.572494
 H        -3.523045        -0.007246        -1.394117
 H        -2.692756        -2.954544        -0.896010
 H        -3.879718        -3.298302        -2.980569
 H        -3.994406        -1.523647        -3.293177
 H        -2.476796        -2.574985        -3.134709
