19
Iteration:  1592
 C         1.476072         0.152464        -0.285581
 C         0.047596         0.020841        -0.264045
 C        -1.188425        -0.126602         0.003128
 C        -2.604965        -0.198391         0.279857
 O        -3.151383         1.031711         0.796758
 C        -3.120004        -0.912135        -0.942353
 O        -4.516959        -1.435123        -0.715985
 C        -3.442669        -2.367164        -0.921713
 C        -3.320591        -3.294255        -2.161321
 H         1.905710         0.596297         0.668511
 H         1.903307        -0.792203        -0.566459
 H         1.918868         0.808765        -1.108210
 H        -2.781007        -0.795342         1.237972
 H        -2.795141         1.500002         0.026967
 H        -2.831513        -0.359420        -1.846415
 H        -3.010219        -2.936747         0.043075
 H        -3.986433        -4.164216        -2.105123
 H        -3.585347        -2.862182        -3.131491
 H        -2.326138        -3.710266        -2.283601
