19
Iteration:  1264
 C         1.493732         0.079792        -0.157475
 C         0.061086         0.134489        -0.132636
 C        -1.125351        -0.072988         0.206768
 C        -2.579187        -0.163368         0.279332
 O        -3.184388         1.184386         0.222894
 C        -3.240010        -0.986502        -0.883154
 O        -4.455017        -1.691644        -0.539696
 C        -3.296857        -2.482559        -0.927417
 C        -3.433657        -3.131242        -2.198510
 H         2.020749         0.578177        -1.048054
 H         1.845893         0.641105         0.661407
 H         1.940586        -0.941561        -0.277192
 H        -2.638079        -0.765197         1.254306
 H        -2.572213         1.951607         0.565732
 H        -3.267191        -0.498336        -1.874468
 H        -2.917189        -3.168854        -0.101110
 H        -4.266429        -3.883829        -2.025831
 H        -4.054884        -2.550403        -2.970875
 H        -2.528669        -3.655372        -2.644891
