19
Iteration:  4688
 C         1.473656        -0.059899        -0.497141
 C         0.095564         0.005690         0.014949
 C        -1.117543        -0.119232         0.155098
 C        -2.489186        -0.469990         0.547195
 O        -3.230526         0.593952         1.282345
 C        -3.238500        -0.791438        -0.729078
 O        -4.439582        -1.639783        -0.618872
 C        -3.354022        -2.172024        -1.390568
 C        -3.434620        -2.426348        -2.916864
 H         1.418444        -0.875710        -1.160627
 H         1.779010         0.741118        -1.121904
 H         2.263742        -0.334788         0.272971
 H        -2.510044        -1.281599         1.179358
 H        -2.844704         1.428218         0.977827
 H        -3.377114         0.029363        -1.368391
 H        -2.756278        -2.891658        -0.851932
 H        -3.948961        -3.376715        -3.139718
 H        -4.140261        -1.728652        -3.407965
 H        -2.496350        -2.473483        -3.445228
