19
Iteration:  4492
 C         1.504195        -0.004011        -0.373016
 C         0.063267        -0.183468        -0.028070
 C        -1.171672        -0.280571         0.175823
 C        -2.625048        -0.429936         0.580070
 O        -3.099756         0.879678         0.944928
 C        -3.422849        -0.836839        -0.662383
 O        -4.275035        -1.893280        -0.561235
 C        -3.119579        -2.077403        -1.422132
 C        -3.619003        -2.337255        -2.834005
 H         1.489714         0.847006        -0.974805
 H         2.171689         0.158095         0.443219
 H         1.838319        -0.775550        -1.152336
 H        -2.852649        -1.254922         1.346313
 H        -2.671230         1.127917         1.784900
 H        -3.740792         0.009511        -1.227995
 H        -2.521598        -2.788756        -1.036703
 H        -3.807495        -3.364429        -3.072784
 H        -4.435234        -1.755379        -3.212612
 H        -2.885799        -2.093813        -3.532929
