19
Iteration:  3674
 C         1.550001         0.143738        -0.294866
 C         0.113901        -0.105644        -0.177096
 C        -1.096792        -0.181356         0.088257
 C        -2.578082        -0.371677         0.324899
 O        -3.118879         0.751637         1.020021
 C        -3.323683        -0.842409        -0.836057
 O        -4.469671        -1.576839        -0.523875
 C        -3.428794        -2.297750        -1.170425
 C        -3.441965        -2.674994        -2.627338
 H         2.017871         0.097120         0.767672
 H         2.161316        -0.471802        -0.962014
 H         1.586515         1.116932        -0.804241
 H        -2.656508        -1.165653         1.052435
 H        -2.838608         1.535929         0.508918
 H        -3.649876        -0.160722        -1.666549
 H        -2.844447        -3.002344        -0.500209
 H        -3.829840        -3.750405        -2.790300
 H        -3.815123        -2.112909        -3.522681
 H        -2.361048        -2.814879        -2.967633
