19
Iteration:   148charge 0 multiplicity 1
 C         1.432001         0.248747        -0.067986
 C        -0.073561         0.191085        -0.268015
 C        -1.154624        -0.029423         0.192359
 C        -2.565960        -0.163925         0.249831
 O        -3.095898         1.207113         0.124117
 C        -3.040971        -1.050138        -0.888911
 O        -4.407466        -1.471821        -1.003215
 C        -3.435398        -2.468855        -0.697458
 C        -3.445297        -3.563221        -1.712093
 H         1.715788         1.221294         0.298406
 H         1.553922        -0.233520         0.891986
 H         2.119010        -0.164928        -0.782421
 H        -3.164790        -0.595006         1.121336
 H        -2.861426         1.469111        -0.778321
 H        -2.441354        -0.856525        -1.878394
 H        -3.497101        -3.095208         0.355010
 H        -4.200706        -4.420390        -1.763348
 H        -3.470585        -2.932702        -2.640191
 H        -2.400535        -3.992546        -1.757254
