19
Iteration:  4509
 C         1.440936         0.045437        -0.395192
 C         0.057379        -0.230880        -0.070394
 C        -1.104339        -0.422689         0.253718
 C        -2.546603        -0.314473         0.474855
 O        -3.151953         0.937979         1.038777
 C        -3.359291        -0.806716        -0.802674
 O        -4.308304        -1.996398        -0.505804
 C        -3.226150        -2.154928        -1.397977
 C        -3.567511        -2.281070        -2.867170
 H         1.696436         0.989656        -1.006541
 H         2.017819         0.182295         0.581437
 H         1.908587        -0.889750        -0.675709
 H        -2.730799        -1.025408         1.268622
 H        -2.502428         1.300687         1.674751
 H        -3.937518         0.096582        -1.258143
 H        -2.223222        -2.747717        -1.033298
 H        -3.875016        -3.379726        -2.929410
 H        -4.558619        -1.674254        -3.065437
 H        -2.867880        -1.842596        -3.688362
