19
Iteration:  3111
 C         1.516677        -0.042078        -0.269110
 C         0.012375        -0.201829        -0.203912
 C        -1.177603        -0.066243         0.104215
 C        -2.557788        -0.201465         0.392697
 O        -3.267801         0.895721         0.820149
 C        -3.305702        -0.796024        -0.817904
 O        -4.349719        -1.775154        -0.446201
 C        -3.151400        -2.185936        -1.219601
 C        -3.500828        -2.718291        -2.614720
 H         2.007420        -0.093399         0.697442
 H         1.899493        -0.746242        -0.981394
 H         1.869342         0.964494        -0.815816
 H        -2.594949        -1.212683         1.013289
 H        -2.827151         1.614841         1.311454
 H        -3.777058        -0.089516        -1.497985
 H        -2.309879        -2.746861        -0.656656
 H        -3.868526        -3.810409        -2.436273
 H        -4.142038        -2.144669        -3.292861
 H        -2.516875        -3.012245        -3.052210
