19
Iteration:  1682
 C         1.445149         0.071333        -0.413675
 C         0.159111        -0.171095         0.075254
 C        -1.125959        -0.074852         0.136344
 C        -2.577956        -0.180269         0.257011
 O        -3.235713         1.067307         0.286615
 C        -3.289054        -0.955056        -0.784400
 O        -4.464413        -1.634211        -0.405808
 C        -3.355343        -2.368011        -0.996180
 C        -3.308832        -2.937312        -2.317259
 H         1.713611         1.189191        -0.245127
 H         2.285550        -0.332069         0.126957
 H         1.704563        -0.295892        -1.443321
 H        -2.680732        -0.797480         1.257912
 H        -3.270836         1.479660         1.187080
 H        -3.542458        -0.299156        -1.600224
 H        -2.806756        -2.960184        -0.118972
 H        -3.770010        -3.918693        -2.352814
 H        -3.664205        -2.423187        -3.163907
 H        -2.244964        -3.072882        -2.506799
