19
Iteration:  1943
 C         1.368475         0.047098        -0.496216
 C        -0.065589        -0.151329        -0.221109
 C        -1.121828        -0.173745         0.324510
 C        -2.643875        -0.182648         0.457029
 O        -3.233001         1.150721         0.506362
 C        -3.113239        -0.831543        -0.816695
 O        -4.475012        -1.566849        -0.695466
 C        -3.154378        -2.281682        -1.011578
 C        -3.271633        -3.165565        -2.235014
 H         1.825164        -0.962394        -0.861690
 H         1.464945         0.653343        -1.354167
 H         1.863959         0.423953         0.405210
 H        -2.953399        -0.837826         1.310595
 H        -3.408656         1.290173         1.423910
 H        -2.925994        -0.100514        -1.582066
 H        -2.718024        -2.774332        -0.163745
 H        -4.078827        -3.932236        -2.016281
 H        -3.497695        -2.411663        -2.979096
 H        -2.328061        -3.693080        -2.454492
