19
Iteration:  4265charge 0 multiplicity 1
 C         1.334451         0.268296        -0.502657
 C         0.041121        -0.101538        -0.033918
 C        -1.095719        -0.447887         0.255114
 C        -2.496683        -0.594028         0.662630
 O        -3.106810         0.753099         0.964981
 C        -3.127042        -0.903147        -0.695527
 O        -4.454737        -1.398026        -0.701496
 C        -3.447401        -2.248208        -1.281270
 C        -3.443233        -2.580167        -2.825780
 H         1.975377         0.233389         0.409287
 H         1.795585        -0.370099        -1.236558
 H         1.379711         1.259470        -0.882128
 H        -2.641130        -1.376396         1.484375
 H        -2.474788         1.243857         1.522740
 H        -2.946599        -0.162037        -1.415906
 H        -3.016224        -3.080409        -0.658007
 H        -4.265720        -3.198320        -3.151188
 H        -3.565015        -1.678955        -3.397838
 H        -2.552914        -3.164955        -3.098114
