19
Iteration:  2130charge 0 multiplicity 1
 C         1.623053         0.257921        -0.264115
 C         0.210726         0.118799         0.088521
 C        -1.007691        -0.024008        -0.043348
 C        -2.454770        -0.271203         0.253684
 O        -3.203253         0.908208         0.567940
 C        -3.204366        -1.061736        -0.890133
 O        -4.574900        -1.491471        -0.533253
 C        -3.465325        -2.479673        -0.936581
 C        -3.565078        -3.058789        -2.374482
 H         2.156992         0.693917         0.715163
 H         1.945893        -0.764656        -0.280794
 H         1.746705         0.876723        -1.160821
 H        -2.612619        -0.869524         1.318076
 H        -3.509227         1.082562        -0.331993
 H        -3.358441        -0.394585        -1.802920
 H        -3.090775        -3.298566        -0.371889
 H        -4.111290        -4.027012        -2.313170
 H        -3.967798        -2.301012        -3.085227
 H        -2.494395        -3.319627        -2.516031
