19
Iteration:  4828charge 0 multiplicity 1
 C         1.260404         0.313937        -0.473561
 C        -0.012156        -0.115925        -0.073803
 C        -1.045338        -0.551525         0.354314
 C        -2.464517        -0.643384         0.627154
 O        -2.941228         0.529293         1.239551
 C        -3.051090        -0.840259        -0.766577
 O        -4.571368        -1.286221        -0.830363
 C        -3.517293        -2.118041        -1.338819
 C        -3.385062        -2.542481        -2.826580
 H         2.128629        -0.232872        -0.132790
 H         1.037100         0.237141        -1.548276
 H         1.381038         1.407073        -0.319613
 H        -2.892824        -1.574889         1.262018
 H        -2.579130         1.290606         0.764379
 H        -2.792774        -0.114140        -1.429835
 H        -3.372034        -2.936135        -0.660800
 H        -3.894000        -3.458060        -3.143723
 H        -3.942769        -1.850479        -3.516100
 H        -2.393796        -2.583740        -3.100252
