19
Iteration:  2574charge 0 multiplicity 1
 C         1.543767        -0.066460        -0.382951
 C         0.074508         0.105329         0.026677
 C        -1.104624        -0.083163         0.002467
 C        -2.636527        -0.200227         0.320473
 O        -3.258208         1.003675         0.699208
 C        -3.322830        -0.870175        -0.772070
 O        -4.467896        -1.678484        -0.552116
 C        -3.195530        -2.318002        -1.041691
 C        -3.358381        -2.951103        -2.528549
 H         2.150964        -0.447900         0.409531
 H         1.556900        -0.680843        -1.319081
 H         2.033600         0.967027        -0.531154
 H        -2.657697        -0.940602         1.136350
 H        -3.033243         1.334194         1.596298
 H        -3.582548        -0.186239        -1.569293
 H        -2.818686        -3.088752        -0.380783
 H        -3.954118        -3.890260        -2.395664
 H        -3.787299        -2.152174        -3.205426
 H        -2.406495        -3.390427        -2.861889
