19
Iteration:  2676
 C         1.498512         0.234429        -0.270696
 C         0.095121        -0.017640         0.023033
 C        -1.066442        -0.147917         0.242805
 C        -2.586610        -0.304530         0.313685
 O        -2.979119         0.963837         0.731454
 C        -3.327555        -0.866295        -0.898896
 O        -4.504462        -1.732900        -0.576043
 C        -3.418981        -2.320175        -1.191679
 C        -3.508791        -2.978950        -2.519008
 H         1.931526         1.129278         0.391387
 H         2.198959        -0.573409        -0.179617
 H         1.616751         0.523413        -1.300009
 H        -2.689726        -0.986416         1.165416
 H        -2.402923         1.656791         0.383527
 H        -3.484857        -0.189362        -1.763154
 H        -3.014899        -2.991745        -0.493522
 H        -4.037240        -3.911868        -2.177281
 H        -4.225558        -2.485053        -3.168866
 H        -2.485180        -2.945574        -3.003416
