19
Iteration:  2069charge 0 multiplicity 1
 C         1.431094         0.260948        -0.332962
 C         0.044844        -0.049614        -0.210003
 C        -1.127920        -0.195773         0.127971
 C        -2.581584        -0.229925         0.369170
 O        -3.169798         1.011715         0.755246
 C        -3.125563        -0.899723        -0.874150
 O        -4.390170        -1.492914        -0.853369
 C        -3.279425        -2.428768        -0.944568
 C        -3.529271        -3.138364        -2.182617
 H         1.893858         0.054731         0.605577
 H         1.871690        -0.413479        -1.137663
 H         1.764031         1.275524        -0.580724
 H        -2.849910        -0.993852         1.040816
 H        -2.905083         1.686389         0.084407
 H        -3.138835        -0.340287        -1.799606
 H        -3.100919        -2.978157         0.068254
 H        -4.375715        -3.784911        -1.964687
 H        -3.541185        -2.597486        -3.151804
 H        -2.749301        -3.913621        -2.307547
