19
Iteration:   185charge 0 multiplicity 1
 C         1.516941         0.277932        -0.152406
 C         0.108929         0.080762         0.133101
 C        -1.145061        -0.017696         0.058311
 C        -2.611292        -0.199378         0.153508
 O        -3.244175         1.132941         0.064487
 C        -3.075391        -1.039243        -0.988870
 O        -4.489635        -1.415744        -0.888070
 C        -3.517422        -2.469233        -0.721518
 C        -3.348300        -3.520400        -1.726396
 H         1.685230         1.282781        -0.630764
 H         2.017643         0.213019         0.894684
 H         1.978877        -0.469024        -0.806900
 H        -2.766300        -0.637321         1.180130
 H        -2.593742         1.687605        -0.327740
 H        -2.663225        -0.666842        -1.919243
 H        -3.485962        -2.733940         0.373267
 H        -4.108922        -4.305441        -1.792125
 H        -3.205994        -3.124975        -2.755549
 H        -2.376171        -3.945079        -1.410542
