19
Iteration:  2048charge 0 multiplicity 1
 C         1.412083         0.216160        -0.385861
 C        -0.026305        -0.103312        -0.175681
 C        -1.181028        -0.116234         0.140628
 C        -2.547295        -0.315366         0.395442
 O        -3.153734         1.005250         0.704023
 C        -3.084706        -0.893451        -0.896458
 O        -4.495579        -1.369097        -0.800246
 C        -3.409321        -2.379904        -0.894065
 C        -3.335553        -3.237960        -2.223219
 H         2.091464        -0.079131         0.350135
 H         1.868775        -0.104107        -1.397974
 H         1.572142         1.319062        -0.474123
 H        -2.720575        -1.083071         1.061901
 H        -2.490601         1.677068         0.626701
 H        -2.867258        -0.260218        -1.769330
 H        -3.015338        -2.923145         0.091595
 H        -4.192238        -3.955490        -2.219551
 H        -3.453072        -2.809725        -3.221136
 H        -2.455210        -3.875472        -2.316038
