19
Iteration:  4616
 C         1.419527         0.018356        -0.311694
 C         0.050143        -0.230894        -0.134777
 C        -1.115037        -0.295221         0.070464
 C        -2.542728        -0.389292         0.543367
 O        -3.148032         0.798018         1.108209
 C        -3.373139        -0.782292        -0.647063
 O        -4.321845        -1.920479        -0.461947
 C        -3.185531        -2.090626        -1.476171
 C        -3.525765        -2.288936        -2.916960
 H         1.799726        -0.172582        -1.409063
 H         1.753521         1.059970         0.003888
 H         1.897242        -0.760404         0.249169
 H        -2.578944        -1.188967         1.416947
 H        -2.679998         1.538605         0.699266
 H        -3.850107         0.153888        -1.161279
 H        -2.647868        -2.917628        -0.974590
 H        -4.009125        -3.235179        -3.185252
 H        -4.346782        -1.629892        -3.107860
 H        -2.651391        -2.089533        -3.651297
