19
Iteration:  3063
 C         1.503055        -0.018837        -0.279641
 C         0.082278         0.070553        -0.141851
 C        -1.124603        -0.148647        -0.086230
 C        -2.567137        -0.303439         0.350852
 O        -3.171783         0.958490         0.815557
 C        -3.390513        -0.937710        -0.747637
 O        -4.495383        -1.730806        -0.519962
 C        -3.294250        -2.335544        -1.121362
 C        -3.347971        -2.651806        -2.559463
 H         1.844293        -0.784563         0.667040
 H         1.793580        -0.379644        -1.331826
 H         1.988269         0.877845        -0.079704
 H        -2.359620        -1.025253         1.169065
 H        -2.501251         1.295987         1.425618
 H        -3.376700        -0.278953        -1.610907
 H        -3.028370        -3.093190        -0.466266
 H        -3.524332        -3.783650        -2.691503
 H        -4.225391        -2.010772        -2.955587
 H        -2.382050        -2.441569        -3.105622
