19
Iteration:  4570charge 0 multiplicity 1
 C         1.502028         0.000935        -0.334251
 C         0.026563        -0.056155        -0.027835
 C        -1.131689        -0.397157         0.074516
 C        -2.558241        -0.344043         0.475876
 O        -3.003385         0.871822         1.023816
 C        -3.524829        -0.902961        -0.641609
 O        -4.397730        -2.047014        -0.546299
 C        -3.205593        -2.168401        -1.383616
 C        -3.546175        -2.159027        -2.857293
 H         1.860155         0.328344        -1.293620
 H         1.890295         0.724227         0.381310
 H         1.998934        -0.994342        -0.094013
 H        -2.572916        -1.048021         1.429493
 H        -2.409924         1.633399         0.867145
 H        -4.094564        -0.168693        -1.220209
 H        -2.334040        -2.584920        -1.034013
 H        -3.921142        -3.144981        -3.119261
 H        -4.287032        -1.491471        -3.135312
 H        -2.563991        -2.040688        -3.351514
