19
Iteration:  1831
 C         1.360683        -0.145665        -0.200545
 C        -0.025359        -0.093419        -0.365351
 C        -1.240328        -0.079801         0.018508
 C        -2.659549        -0.105329         0.320864
 O        -3.181386         1.178112         0.543364
 C        -3.323494        -0.846183        -0.865022
 O        -4.358174        -1.772465        -0.334458
 C        -3.115140        -2.381386        -0.930836
 C        -3.242100        -2.855256        -2.342972
 H         1.947665        -0.350814        -1.149292
 H         1.875103         0.826945         0.170830
 H         1.709264        -0.970431         0.455019
 H        -2.946441        -0.741154         1.208490
 H        -3.491827         1.494862        -0.324784
 H        -3.453455        -0.299598        -1.804264
 H        -2.438308        -2.970726        -0.399619
 H        -3.313686        -4.010581        -2.461900
 H        -4.071015        -2.465204        -2.921069
 H        -2.349577        -2.797867        -2.998316
