19
Iteration:  3669
 C         1.516436         0.116262        -0.267440
 C         0.126960        -0.083324        -0.165717
 C        -1.087801        -0.142328         0.071551
 C        -2.559147        -0.407387         0.302017
 O        -3.112893         0.763423         1.017891
 C        -3.331414        -0.863862        -0.831418
 O        -4.455322        -1.580284        -0.528959
 C        -3.439648        -2.298847        -1.177932
 C        -3.455006        -2.703058        -2.644035
 H         2.061320         0.212036         0.638727
 H         2.003445        -0.513215        -1.037044
 H         1.635489         1.180327        -0.623456
 H        -2.593507        -1.235376         1.066465
 H        -2.882500         1.519394         0.453097
 H        -3.488395        -0.122591        -1.589904
 H        -2.800452        -2.909003        -0.592002
 H        -3.938659        -3.627479        -2.743439
 H        -3.879893        -1.951110        -3.308523
 H        -2.380942        -2.789073        -2.791515
