19
Iteration:   986charge 0 multiplicity 1
 C         1.453040         0.013697        -0.301420
 C         0.040232        -0.074133        -0.029573
 C        -1.134547        -0.120189         0.215397
 C        -2.623770        -0.101624         0.271550
 O        -3.286628         1.128242         0.224208
 C        -3.233489        -0.900277        -0.937250
 O        -4.535333        -1.517188        -0.798483
 C        -3.315527        -2.355158        -0.805026
 C        -3.083626        -3.218907        -1.953942
 H         2.219123        -0.403224         0.323743
 H         1.784390        -0.296342        -1.318948
 H         1.629143         1.083861        -0.302824
 H        -3.078565        -0.630232         1.144432
 H        -3.382778         1.517190         1.178608
 H        -3.038485        -0.512255        -1.976250
 H        -3.153612        -2.772568         0.210344
 H        -3.751243        -4.202641        -1.914170
 H        -3.381513        -2.717208        -2.932778
 H        -2.038095        -3.637976        -2.037233
