19
Iteration:  4200charge 0 multiplicity 1
 C         1.529731         0.292401        -0.315603
 C         0.134680        -0.011602        -0.005535
 C        -1.012436        -0.356493         0.082042
 C        -2.473261        -0.550002         0.451437
 O        -3.148132         0.671170         1.038525
 C        -3.255369        -0.826968        -0.808539
 O        -4.500665        -1.458795        -0.632833
 C        -3.397041        -2.223894        -1.357793
 C        -3.613827        -2.684562        -2.745564
 H         2.022109        -0.431827         0.368019
 H         1.712686         0.200027        -1.351375
 H         1.783240         1.233583        -0.020204
 H        -2.633464        -1.292025         1.177677
 H        -2.543026         0.974282         1.748768
 H        -2.959892        -0.028716        -1.431965
 H        -2.966896        -2.958471        -0.637845
 H        -4.478630        -3.324708        -2.738039
 H        -3.777267        -1.938540        -3.482506
 H        -2.837083        -3.389051        -2.998725
