19
Iteration:  1873charge 0 multiplicity 1
 C         1.502493        -0.190969        -0.352127
 C         0.034854        -0.004847        -0.085616
 C        -1.212620         0.121785         0.012398
 C        -2.592095        -0.121323         0.395935
 O        -3.293677         1.148828         0.527824
 C        -3.305070        -0.929719        -0.785437
 O        -4.457621        -1.792216        -0.471315
 C        -3.262175        -2.347363        -0.977929
 C        -3.207789        -2.988896        -2.397233
 H         1.597586        -0.721354        -1.274742
 H         2.005914         0.751134        -0.765392
 H         2.008051        -0.708079         0.476769
 H        -2.597596        -0.619306         1.436049
 H        -2.659196         1.799190         0.262842
 H        -3.655032        -0.336616        -1.658675
 H        -2.717650        -2.713488        -0.183570
 H        -3.556125        -4.071396        -2.402471
 H        -3.854297        -2.354877        -3.023209
 H        -2.160531        -3.076076        -2.762900
