19
Iteration:  2551charge 0 multiplicity 1
 C         1.388610        -0.022275        -0.408239
 C         0.003730        -0.036012        -0.073472
 C        -1.198817        -0.042353         0.237674
 C        -2.567399        -0.252021         0.368906
 O        -3.190446         0.993457         0.673852
 C        -3.247807        -0.827485        -0.926254
 O        -4.383809        -1.718642        -0.580148
 C        -3.206275        -2.251701        -1.074440
 C        -3.384524        -2.936053        -2.418081
 H         1.908309        -0.636104         0.253101
 H         1.431867        -0.452190        -1.455919
 H         1.986992         0.962993        -0.284649
 H        -2.726627        -1.050813         1.151275
 H        -2.849104         1.658789         1.285788
 H        -3.415662        -0.120683        -1.799754
 H        -2.571909        -2.929080        -0.371805
 H        -3.922736        -3.911629        -2.289247
 H        -3.831872        -2.097345        -3.010094
 H        -2.381692        -3.289743        -2.726353
