19
Iteration:  4256charge 0 multiplicity 1
 C         1.381475         0.275130        -0.486084
 C         0.071186        -0.095093        -0.016279
 C        -1.077266        -0.436863         0.267407
 C        -2.529258        -0.509697         0.631718
 O        -3.097243         0.735853         0.983073
 C        -3.168586        -0.892952        -0.753457
 O        -4.454813        -1.399393        -0.652179
 C        -3.455124        -2.330331        -1.341313
 C        -3.459798        -2.617775        -2.821441
 H         2.244261         0.289526         0.248726
 H         1.749987        -0.314142        -1.287357
 H         1.275320         1.237129        -0.702477
 H        -2.750505        -1.287699         1.352944
 H        -2.463440         1.139340         1.606477
 H        -2.982647        -0.089856        -1.405360
 H        -3.279626        -3.260660        -0.706046
 H        -4.359760        -3.023118        -3.174280
 H        -3.348467        -1.657136        -3.183986
 H        -2.513353        -3.021654        -3.073695
