19
Iteration:  1558
 C         1.586260         0.236811        -0.410825
 C         0.167322        -0.037632         0.004357
 C        -1.045957        -0.078702         0.060004
 C        -2.517698        -0.236737         0.323109
 O        -3.264761         0.880902         0.601930
 C        -3.167328        -0.930385        -0.896875
 O        -4.636354        -1.412761        -0.791768
 C        -3.426731        -2.342387        -0.863740
 C        -3.369782        -3.177792        -2.068008
 H         2.381707         0.170961         0.379649
 H         1.990944        -0.589700        -1.033762
 H         1.700438         1.165594        -1.035901
 H        -2.576188        -1.190955         0.971689
 H        -3.623934         1.286153        -0.244918
 H        -3.010714        -0.578384        -1.948958
 H        -3.189605        -2.829826         0.215249
 H        -4.187338        -3.882271        -2.097750
 H        -3.493330        -2.479596        -2.957590
 H        -2.402065        -3.636107        -2.260654
