19
Iteration:  4009
 C         1.531175         0.216545        -0.312431
 C         0.106236        -0.105811         0.048454
 C        -1.075769        -0.457816         0.166818
 C        -2.493175        -0.429722         0.499506
 O        -3.120540         0.876618         0.772801
 C        -3.264254        -0.822379        -0.723409
 O        -4.491708        -1.801416        -0.536054
 C        -3.341031        -2.201853        -1.284887
 C        -3.591188        -2.517202        -2.789789
 H         1.625881         0.050276        -1.338591
 H         1.559269         1.340814        -0.085587
 H         2.488011        -0.277795         0.165208
 H        -2.686500        -1.064918         1.319276
 H        -2.642207         1.536397         1.314763
 H        -3.412754        -0.030223        -1.472459
 H        -2.760947        -3.025022        -0.770311
 H        -4.501612        -3.207539        -2.958499
 H        -3.788681        -1.581076        -3.334006
 H        -2.656446        -3.029963        -3.144589
