19
Iteration:   953
 C         1.439392         0.101335        -0.164621
 C         0.024248        -0.102202        -0.087961
 C        -1.191039        -0.115303         0.056794
 C        -2.650525        -0.107799         0.261408
 O        -3.266553         1.118202         0.328281
 C        -3.132628        -0.942137        -0.947231
 O        -4.479265        -1.456879        -0.719849
 C        -3.299850        -2.368635        -0.828673
 C        -3.207934        -3.321972        -2.015428
 H         2.140510        -0.505439         0.399741
 H         1.668628         0.243489        -1.276664
 H         1.466780         1.098319         0.247909
 H        -2.874159        -0.619093         1.235334
 H        -2.643679         1.688193        -0.217715
 H        -3.019302        -0.546880        -1.999309
 H        -3.357209        -2.807898         0.175463
 H        -3.799457        -4.308111        -1.817326
 H        -3.444889        -2.768669        -2.975117
 H        -2.099866        -3.650156        -2.087723
