19
Iteration:  2666
 C         1.503517         0.199396        -0.240591
 C         0.048150        -0.021233        -0.058081
 C        -1.125954        -0.197306         0.179608
 C        -2.469752        -0.336707         0.315389
 O        -3.071085         0.999118         0.731695
 C        -3.314573        -0.860863        -0.852165
 O        -4.519629        -1.668619        -0.578519
 C        -3.293879        -2.319002        -1.162848
 C        -3.542217        -2.987452        -2.473046
 H         1.912740         1.104752         0.504804
 H         2.074394        -0.722589        -0.186997
 H         1.606099         0.695238        -1.183345
 H        -2.704418        -1.060417         1.080133
 H        -2.358150         1.611277         0.481825
 H        -3.569889        -0.132891        -1.672844
 H        -2.718380        -2.972265        -0.499754
 H        -3.829902        -4.054472        -2.615208
 H        -4.149342        -2.285806        -3.017385
 H        -2.586140        -3.082385        -3.108776
