19
Iteration:  3806charge 0 multiplicity 1
 C         1.346865        -0.020396        -0.648264
 C        -0.020975        -0.243795        -0.159662
 C        -1.159782        -0.269910         0.329885
 C        -2.604090        -0.361114         0.561813
 O        -3.312301         0.925165         1.069114
 C        -3.145389        -0.891006        -0.773085
 O        -4.411221        -1.573292        -0.620552
 C        -3.234655        -2.293557        -1.228261
 C        -3.188016        -2.538515        -2.619204
 H         1.421062         1.082141        -0.535511
 H         2.108658        -0.634730        -0.181089
 H         1.306387        -0.084462        -1.714856
 H        -2.738980        -0.999901         1.403753
 H        -2.958176         1.506180         0.368046
 H        -2.909335        -0.240354        -1.696823
 H        -3.013687        -3.184281        -0.562093
 H        -4.144011        -3.043422        -2.950581
 H        -3.304086        -1.506923        -3.183368
 H        -2.230856        -2.999520        -2.933863
