19
Iteration:  3058
 C         1.501323        -0.026697        -0.290576
 C         0.054891         0.094068        -0.106546
 C        -1.120975        -0.140654        -0.091982
 C        -2.483604        -0.341366         0.403053
 O        -3.147442         0.987643         0.801777
 C        -3.410949        -0.943463        -0.796728
 O        -4.557606        -1.721691        -0.521120
 C        -3.281693        -2.350719        -1.105813
 C        -3.315170        -2.684286        -2.572292
 H         1.949442        -0.741638         0.414224
 H         1.686981        -0.373015        -1.282815
 H         1.994267         0.971985         0.072481
 H        -2.477168        -1.222753         1.086650
 H        -2.571503         1.365520         1.510323
 H        -3.503702        -0.197869        -1.660013
 H        -2.980125        -3.114886        -0.300760
 H        -3.645653        -3.644563        -2.866546
 H        -4.134361        -2.073194        -2.825133
 H        -2.477041        -2.394242        -3.182320
