19
Iteration:   947charge 0 multiplicity 1
 C         1.426319         0.121144        -0.147130
 C         0.009526        -0.079071        -0.102293
 C        -1.182808        -0.072083         0.082402
 C        -2.623750        -0.141512         0.206569
 O        -3.208579         1.154877         0.350554
 C        -3.131614        -0.951941        -0.922091
 O        -4.514199        -1.477092        -0.740054
 C        -3.271774        -2.395503        -0.824661
 C        -3.244901        -3.357267        -2.018832
 H         1.963772        -0.663077         0.468125
 H         1.575294         0.302548        -1.179200
 H         1.600838         1.138371         0.326394
 H        -2.712740        -0.651974         1.160684
 H        -2.854618         1.610968        -0.387424
 H        -3.004990        -0.495105        -1.888777
 H        -3.339545        -2.913518         0.132798
 H        -3.889702        -4.159591        -1.897088
 H        -3.467540        -2.895675        -2.958657
 H        -2.191175        -3.477901        -2.121235
