19
Iteration:  3997
 C         1.432308         0.220909        -0.353227
 C         0.128524        -0.115212         0.096186
 C        -1.086408        -0.401365         0.097434
 C        -2.514225        -0.367633         0.526445
 O        -3.103354         0.852143         0.795529
 C        -3.305541        -0.916940        -0.693909
 O        -4.473030        -1.726866        -0.590814
 C        -3.322334        -2.248518        -1.274277
 C        -3.512367        -2.468422        -2.755973
 H         1.510340         0.074732        -1.375356
 H         1.912625         1.241980        -0.157039
 H         2.019992        -0.653586         0.231933
 H        -2.579741        -1.032127         1.331537
 H        -2.344030         1.290226         1.240338
 H        -3.521434        -0.080810        -1.315036
 H        -2.848926        -3.123915        -0.807587
 H        -4.292338        -3.326086        -2.630338
 H        -3.921419        -1.747312        -3.455022
 H        -2.660281        -2.977952        -3.317555
