19
Iteration:  2718charge 0 multiplicity 1
 C         1.436321         0.320040        -0.280394
 C         0.080572        -0.030473         0.051900
 C        -1.080981        -0.335643         0.113726
 C        -2.494985        -0.333943         0.388675
 O        -3.039673         0.932372         0.671798
 C        -3.192568        -0.912392        -0.783800
 O        -4.502214        -1.601800        -0.627955
 C        -3.383480        -2.365082        -1.074745
 C        -3.549691        -2.854749        -2.518565
 H         1.606501         1.341188        -0.093490
 H         2.054998        -0.316969         0.324370
 H         1.723712         0.181760        -1.333125
 H        -2.856128        -1.009167         1.241734
 H        -2.768135         1.567760        -0.012115
 H        -3.291520        -0.351627        -1.688131
 H        -2.931368        -3.159915        -0.485935
 H        -4.184355        -3.767319        -2.344780
 H        -3.985189        -2.283497        -3.336032
 H        -2.584465        -3.233094        -3.001132
