19
Iteration:  1638
 C         1.490722         0.090263        -0.312715
 C         0.041416         0.056334        -0.191710
 C        -1.190716        -0.157460         0.054697
 C        -2.570184        -0.248827         0.354631
 O        -3.130139         1.104363         0.549268
 C        -3.287030        -0.866666        -0.872207
 O        -4.535019        -1.636736        -0.688296
 C        -3.295243        -2.328324        -0.947604
 C        -3.325375        -3.105626        -2.165801
 H         1.964374         0.971135         0.247837
 H         2.048524        -0.772038        -0.046151
 H         1.934574         0.266302        -1.337874
 H        -2.940007        -0.963100         1.133280
 H        -2.534418         1.415629         1.282307
 H        -3.212048        -0.388588        -1.826812
 H        -3.036514        -2.953408        -0.013782
 H        -3.901613        -4.021859        -2.002111
 H        -3.765332        -2.673361        -3.021456
 H        -2.393517        -3.514379        -2.509137
