19
Iteration:  1175charge 0 multiplicity 1
 C         1.468708        -0.043421        -0.220243
 C        -0.040506        -0.090670        -0.180030
 C        -1.277965        -0.086757         0.039287
 C        -2.650768        -0.102677         0.293402
 O        -3.235760         1.212827         0.289762
 C        -3.219299        -0.889852        -0.895215
 O        -4.486704        -1.623019        -0.561143
 C        -3.235751        -2.355720        -0.893349
 C        -3.095669        -3.164929        -2.117721
 H         1.993953         0.950602        -0.171363
 H         1.692276        -0.510227         0.658040
 H         1.708835        -0.672884        -1.063188
 H        -2.973613        -0.635136         1.204821
 H        -2.704260         1.669377         1.070501
 H        -3.387414        -0.323018        -1.807854
 H        -2.717216        -2.709091         0.071686
 H        -3.615725        -4.151194        -1.936760
 H        -3.908282        -2.822320        -2.791109
 H        -2.029668        -3.299115        -2.500893
