19
Iteration:   252
 C         1.396915         0.164287        -0.085820
 C        -0.041783         0.170408        -0.110582
 C        -1.170464        -0.078838         0.112307
 C        -2.589319        -0.140319         0.197232
 O        -3.168931         1.188026        -0.022918
 C        -3.070802        -1.028496        -0.897044
 O        -4.427820        -1.465465        -0.854450
 C        -3.272774        -2.458491        -0.705100
 C        -3.396119        -3.478206        -1.796481
 H         1.962362         0.413589        -1.002166
 H         1.515438         0.927574         0.750447
 H         1.822601        -0.740870         0.403956
 H        -3.052961        -0.522695         1.132052
 H        -2.769454         1.657234         0.786722
 H        -2.855143        -0.735005        -1.891917
 H        -3.115207        -2.817213         0.285867
 H        -4.161986        -4.169480        -1.559438
 H        -3.662042        -3.131742        -2.788924
 H        -2.510876        -4.113796        -1.966479
