19
Iteration:   146
 C         1.428199         0.246326        -0.057080
 C        -0.072193         0.174914        -0.271396
 C        -1.166649        -0.000887         0.189410
 C        -2.583417        -0.158890         0.258298
 O        -3.079634         1.195804         0.128045
 C        -3.017593        -1.052571        -0.875231
 O        -4.418834        -1.478140        -1.000155
 C        -3.440067        -2.465571        -0.707341
 C        -3.438223        -3.566859        -1.728454
 H         1.719700         1.196654         0.335231
 H         1.595150        -0.206165         0.855311
 H         2.158580        -0.103624        -0.862363
 H        -3.141979        -0.561882         1.084566
 H        -2.878380         1.496309        -0.823675
 H        -2.481227        -0.937391        -1.895572
 H        -3.486739        -3.017812         0.261697
 H        -4.209758        -4.357856        -1.667612
 H        -3.525749        -2.984701        -2.657786
 H        -2.402007        -3.989400        -1.679608
