19
Iteration:  4885charge 0 multiplicity 1
 C         1.399198         0.278661        -0.388909
 C         0.152271        -0.158624         0.035930
 C        -1.039626        -0.259052         0.163587
 C        -2.460481        -0.602060         0.464335
 O        -3.121046         0.458744         1.240371
 C        -3.149674        -0.876122        -0.802683
 O        -4.449209        -1.341534        -0.694147
 C        -3.434193        -2.249450        -1.313853
 C        -3.608909        -2.447100        -2.856468
 H         2.189187         0.023928         0.299249
 H         1.695898        -0.220053        -1.316191
 H         1.450279         1.409419        -0.551601
 H        -2.638655        -1.640881         1.055504
 H        -2.858736         1.279838         0.757536
 H        -2.902224        -0.115085        -1.506180
 H        -3.440045        -3.226975        -0.752789
 H        -4.440294        -3.182028        -3.042570
 H        -3.667241        -1.501039        -3.322765
 H        -2.670957        -2.836504        -3.234926
