19
Iteration:  3093charge 0 multiplicity 1
 C         1.463548        -0.054403        -0.249462
 C         0.074892        -0.142452        -0.277724
 C        -1.100970        -0.005482         0.067034
 C        -2.545233        -0.325945         0.391255
 O        -3.271922         0.902072         0.811634
 C        -3.355408        -0.806385        -0.799485
 O        -4.404010        -1.741973        -0.409374
 C        -3.245967        -2.225682        -1.222095
 C        -3.389556        -2.752606        -2.620092
 H         1.695720        -0.364607         0.795083
 H         2.049630        -0.568034        -1.028245
 H         1.760380         0.977060        -0.454711
 H        -2.397775        -0.954573         1.256224
 H        -2.578480         1.501671         1.175288
 H        -3.571715         0.009901        -1.570458
 H        -2.723867        -2.884904        -0.527961
 H        -3.747357        -3.709516        -2.644136
 H        -4.126733        -2.055830        -2.996602
 H        -2.474194        -2.650791        -3.184966
