19
Iteration:  3274
 C         1.421309         0.034686        -0.446807
 C         0.062273        -0.036010        -0.133853
 C        -1.112453        -0.243349         0.171048
 C        -2.645072        -0.358472         0.429859
 O        -3.020189         1.024344         0.915344
 C        -3.526960        -0.793815        -0.711918
 O        -4.503125        -1.783091        -0.639366
 C        -3.244349        -2.181529        -1.253867
 C        -3.254093        -2.775982        -2.560289
 H         1.874212         1.101506        -0.799404
 H         1.910504        -0.364711         0.424140
 H         1.648716        -0.725473        -1.144396
 H        -2.884318        -1.161665         1.281524
 H        -2.359925         1.320746         1.556034
 H        -3.813339         0.004171        -1.411022
 H        -2.797134        -2.939314        -0.545201
 H        -3.642249        -3.871583        -2.685554
 H        -3.855947        -2.062144        -3.224328
 H        -2.226515        -2.794624        -3.067506
