19
Iteration:  3686
 C         1.560929         0.195709        -0.357140
 C         0.088587        -0.174044        -0.203228
 C        -1.120719        -0.291582         0.099428
 C        -2.492481        -0.320795         0.439518
 O        -3.151351         0.773734         1.020577
 C        -3.342732        -0.795733        -0.897480
 O        -4.578678        -1.624279        -0.515365
 C        -3.358035        -2.208071        -1.200099
 C        -3.360085        -2.742271        -2.658685
 H         1.951900         0.277303         0.704293
 H         2.057991        -0.681869        -0.783071
 H         1.904397         1.234220        -0.752763
 H        -2.727196        -1.152303         1.111763
 H        -2.790786         1.623733         0.739132
 H        -3.298609        -0.023202        -1.753070
 H        -3.020415        -3.025648        -0.466363
 H        -3.802425        -3.800817        -2.681035
 H        -4.113736        -2.000134        -3.126709
 H        -2.300483        -2.697952        -3.007089
