19
Iteration:  1314charge 0 multiplicity 1
 C         1.533537         0.240999        -0.181801
 C         0.103723        -0.083522         0.086095
 C        -1.082669        -0.033975        -0.022394
 C        -2.482128        -0.171400         0.211055
 O        -3.155920         1.068609         0.332203
 C        -3.173797        -0.921358        -0.876242
 O        -4.501716        -1.575244        -0.548896
 C        -3.367604        -2.392697        -0.882534
 C        -3.535257        -3.245547        -2.187734
 H         1.738710         0.284757        -1.244631
 H         1.856211         1.271936         0.211589
 H         2.190877        -0.531333         0.127636
 H        -2.620209        -0.854821         1.069870
 H        -3.982665         0.992652        -0.120968
 H        -3.185676        -0.488375        -1.898933
 H        -2.909237        -2.929489        -0.049804
 H        -4.241698        -4.040404        -2.291991
 H        -3.815281        -2.577012        -2.945847
 H        -2.561915        -3.607743        -2.424777
