19
Iteration:  4994
 C         1.666597         0.263851         0.007641
 C         0.196439        -0.092914        -0.125291
 C        -0.988581        -0.226560        -0.044181
 C        -2.417553        -0.540340         0.261263
 O        -3.068026         0.450262         1.210851
 C        -3.354402        -0.752129        -0.861834
 O        -4.502689        -1.685937        -0.537963
 C        -3.467357        -2.169105        -1.375113
 C        -3.797225        -2.359901        -2.859240
 H         2.044750         0.799301         0.865781
 H         2.158472        -0.691784         0.021120
 H         1.961196         0.903495        -0.885278
 H        -2.335182        -1.380119         0.868531
 H        -2.785436         1.368965         1.132806
 H        -3.718519         0.036743        -1.432717
 H        -2.729815        -2.952850        -0.998726
 H        -4.032341        -3.491171        -2.924711
 H        -4.672817        -1.854503        -3.158605
 H        -2.919503        -2.349152        -3.554259
