19
Iteration:  4168charge 0 multiplicity 1
 C         1.504777         0.248646        -0.161723
 C         0.124310        -0.003137        -0.185330
 C        -1.027427        -0.129375         0.172656
 C        -2.480786        -0.507380         0.306525
 O        -3.060981         0.591426         1.074848
 C        -3.287808        -0.814376        -0.908649
 O        -4.472094        -1.494940        -0.642228
 C        -3.411344        -2.270875        -1.310973
 C        -3.684897        -2.683096        -2.663499
 H         2.011975        -0.780719         0.221868
 H         2.079219         0.378594        -1.046533
 H         1.697431         0.953672         0.544352
 H        -2.574207        -1.303082         0.986134
 H        -2.289630         0.960375         1.546194
 H        -3.094055        -0.138358        -1.689806
 H        -3.067901        -3.118024        -0.669494
 H        -4.195145        -3.611229        -2.676563
 H        -4.265243        -2.010949        -3.215438
 H        -2.724502        -2.847600        -3.181442
