19
Iteration:  1284charge 0 multiplicity 1
 C         1.544761         0.160035        -0.141097
 C         0.042553         0.085807        -0.113708
 C        -1.117645        -0.102162         0.149176
 C        -2.552447        -0.171791         0.259493
 O        -3.165395         1.151618         0.179660
 C        -3.192020        -0.960092        -0.826919
 O        -4.443373        -1.623412        -0.511549
 C        -3.305001        -2.428163        -0.912458
 C        -3.539725        -3.222791        -2.231792
 H         1.940620         0.404512        -1.216385
 H         2.085232         0.865116         0.613792
 H         1.997934        -0.869376        -0.070923
 H        -3.015281        -0.775952         1.097611
 H        -3.474025         1.261366         1.169759
 H        -3.149385        -0.523963        -1.847544
 H        -2.779094        -2.963190        -0.026626
 H        -4.253515        -4.040590        -2.378317
 H        -3.792831        -2.510394        -3.058747
 H        -2.491953        -3.503183        -2.453921
