19
Iteration:  1084charge 0 multiplicity 1
 C         1.385148        -0.188764        -0.375666
 C        -0.022331        -0.160613        -0.060092
 C        -1.225848         0.036243         0.194240
 C        -2.735665        -0.101196         0.296069
 O        -3.414017         1.155955         0.245990
 C        -3.151147        -0.902055        -0.909889
 O        -4.360458        -1.471907        -0.656634
 C        -3.227968        -2.351083        -0.831336
 C        -3.026403        -3.168491        -2.035363
 H         2.077925         0.301681         0.227957
 H         1.880087        -1.129154        -0.634245
 H         1.503424         0.248795        -1.324619
 H        -2.802746        -0.527078         1.298883
 H        -3.428269         1.528142         1.193948
 H        -3.080664        -0.311871        -1.861690
 H        -2.872386        -2.678546         0.134356
 H        -3.750692        -3.970394        -2.105166
 H        -3.176317        -2.725697        -2.999839
 H        -2.026401        -3.520150        -1.986014
