19
Iteration:  4377charge 0 multiplicity 1
 C         1.437437        -0.000773        -0.467609
 C         0.010025        -0.046574        -0.248769
 C        -1.118913        -0.273003         0.154681
 C        -2.580020        -0.400217         0.443813
 O        -3.209918         0.671013         1.290254
 C        -3.242388        -0.771858        -0.822465
 O        -4.432156        -1.624505        -0.637042
 C        -3.354842        -2.126628        -1.287421
 C        -3.312086        -2.517479        -2.750159
 H         2.088541         0.816120        -0.007710
 H         1.684199        -0.947609         0.075107
 H         1.739176        -0.056361        -1.478924
 H        -2.889716        -1.311421         1.119922
 H        -2.454593         1.206336         1.623522
 H        -3.376291         0.084643        -1.555302
 H        -2.911637        -3.007660        -0.591586
 H        -3.744831        -3.539943        -2.976403
 H        -3.881057        -1.649463        -3.196230
 H        -2.165732        -2.593449        -2.990476
