19
Iteration:  4385charge 0 multiplicity 1
 C         1.406234        -0.050245        -0.415486
 C        -0.022108        -0.035540        -0.275731
 C        -1.165797        -0.240355         0.137520
 C        -2.567649        -0.388295         0.468286
 O        -3.195091         0.659117         1.253155
 C        -3.275834        -0.819862        -0.795680
 O        -4.429201        -1.561137        -0.575955
 C        -3.268921        -2.189481        -1.333786
 C        -3.301545        -2.473747        -2.773865
 H         1.885439         0.906708        -0.026229
 H         1.954585        -0.884767         0.015957
 H         1.697246        -0.208641        -1.458698
 H        -2.628153        -1.258870         1.157958
 H        -2.492554         1.241101         1.621677
 H        -3.394523        -0.081711        -1.510745
 H        -2.831525        -2.985246        -0.732154
 H        -3.808542        -3.425367        -2.822729
 H        -3.902843        -1.754542        -3.274105
 H        -2.258249        -2.637707        -3.200920
