19
Iteration:   897charge 0 multiplicity 1
 C         1.532744         0.204875        -0.047735
 C         0.117635         0.164943         0.074263
 C        -1.066388        -0.065514         0.027385
 C        -2.541805        -0.144873         0.203084
 O        -3.107949         1.201202         0.187763
 C        -3.252157        -1.027532        -0.951797
 O        -4.515219        -1.570035        -0.686631
 C        -3.418266        -2.448034        -0.885322
 C        -3.397583        -3.391775        -2.085764
 H         1.799675        -0.832264        -0.040566
 H         1.913998         0.791072        -0.990543
 H         1.916414         0.708771         0.818266
 H        -2.684309        -0.573303         1.234710
 H        -3.960345         0.889565         0.703754
 H        -3.178714        -0.605004        -2.002531
 H        -3.154546        -2.914041         0.119294
 H        -4.308969        -4.126916        -1.863959
 H        -3.781949        -2.942393        -3.046676
 H        -2.381570        -3.866214        -2.256837
