19
Iteration:  4458
 C         1.506001        -0.064855        -0.423201
 C         0.074314        -0.064739        -0.020238
 C        -1.118947        -0.231623         0.215425
 C        -2.570256        -0.405130         0.462750
 O        -3.183866         0.787720         1.002880
 C        -3.383375        -0.779594        -0.758540
 O        -4.330690        -1.872678        -0.474679
 C        -3.260569        -2.152794        -1.366203
 C        -3.508575        -2.307397        -2.862347
 H         1.690829         0.910309        -0.746253
 H         2.304238        -0.325050         0.257075
 H         1.643050        -0.796115        -1.290584
 H        -2.748324        -1.248679         1.204203
 H        -2.732402         1.045110         1.818813
 H        -3.832587         0.043093        -1.338129
 H        -2.616165        -2.889696        -0.990876
 H        -3.848902        -3.340485        -3.010323
 H        -4.110509        -1.562058        -3.450228
 H        -2.486303        -2.302285        -3.135393
