19
Iteration:  4609
 C         1.396991         0.009912        -0.340798
 C         0.038716        -0.213187        -0.110864
 C        -1.168691        -0.247325         0.115994
 C        -2.484932        -0.360283         0.544207
 O        -3.070585         0.786646         1.074938
 C        -3.432011        -0.863013        -0.692297
 O        -4.304996        -1.925617        -0.438242
 C        -3.229917        -2.092566        -1.445339
 C        -3.524284        -2.268564        -2.923333
 H         1.870250        -0.086395        -1.354566
 H         1.631145         0.927223         0.225424
 H         1.847820        -0.767741         0.323327
 H        -2.664791        -1.136772         1.186414
 H        -2.598690         1.548461         0.712936
 H        -3.943406         0.003879        -1.047013
 H        -2.600862        -2.977239        -1.039987
 H        -3.883739        -3.271627        -3.292841
 H        -4.228968        -1.411125        -3.359847
 H        -2.671167        -2.092832        -3.565205
