19
Iteration:   356charge 0 multiplicity 1
 C         1.418707         0.006791        -0.064296
 C        -0.048041         0.097017         0.009782
 C        -1.243273        -0.047542         0.098143
 C        -2.653000         0.009962         0.166861
 O        -3.187441         1.284334        -0.011198
 C        -3.226788        -0.942523        -0.994447
 O        -4.364441        -1.674006        -0.542787
 C        -3.264959        -2.450629        -0.842647
 C        -3.258174        -3.409172        -1.972576
 H         2.048430        -0.865015        -0.347178
 H         1.636403         0.793485        -0.777387
 H         1.718885         0.174072         1.079690
 H        -3.007198        -0.329752         1.172814
 H        -2.401338         1.898246         0.156836
 H        -3.372380        -0.574783        -2.006633
 H        -2.837505        -2.829452         0.137714
 H        -3.716136        -4.400508        -1.667459
 H        -3.809415        -2.969394        -2.821486
 H        -2.236083        -3.700989        -2.171992
