19
Iteration:  3100
 C         1.475929        -0.044567        -0.278887
 C         0.038686        -0.184471        -0.261951
 C        -1.100314        -0.004976         0.109386
 C        -2.539067        -0.260972         0.314809
 O        -3.283100         0.875779         0.815354
 C        -3.385399        -0.837746        -0.731996
 O        -4.361134        -1.717763        -0.427458
 C        -3.198262        -2.201733        -1.231933
 C        -3.416356        -2.729486        -2.611374
 H         1.798344        -0.275672         0.707819
 H         2.038660        -0.754791        -0.849473
 H         1.724385         1.087481        -0.412446
 H        -2.650248        -0.972975         1.285375
 H        -2.527033         1.393724         1.147609
 H        -3.583861        -0.071787        -1.494984
 H        -2.567702        -2.933308        -0.612703
 H        -3.893348        -3.770789        -2.479978
 H        -4.155034        -2.207066        -3.241105
 H        -2.490833        -2.745303        -3.224513
