19
Iteration:   720
 C         1.433650         0.320588        -0.020595
 C         0.001243        -0.060003        -0.169200
 C        -1.164748        -0.161813         0.135998
 C        -2.545174        -0.208165         0.161372
 O        -3.184275         1.188871         0.199058
 C        -3.108991        -1.008497        -1.024773
 O        -4.406911        -1.463373        -0.746958
 C        -3.469413        -2.474859        -0.755557
 C        -3.388115        -3.385749        -1.941715
 H         1.872884         0.953669        -0.767355
 H         1.545154         0.958987         0.939746
 H         2.032956        -0.591098         0.164099
 H        -3.043782        -0.626439         1.032958
 H        -2.381303         1.800289         0.031092
 H        -2.808912        -0.480212        -1.957503
 H        -3.078337        -2.831379         0.299234
 H        -3.965467        -4.362701        -1.824589
 H        -3.550095        -2.841054        -2.891766
 H        -2.380445        -3.723779        -2.185390
