19
Iteration:  4279
 C         1.330569         0.262224        -0.485807
 C        -0.026772        -0.113556        -0.149736
 C        -1.081065        -0.429933         0.376285
 C        -2.492956        -0.579801         0.600387
 O        -3.078246         0.666201         0.957247
 C        -3.126365        -0.890107        -0.683645
 O        -4.516702        -1.442639        -0.801521
 C        -3.338898        -2.187603        -1.273947
 C        -3.435236        -2.502013        -2.701388
 H         2.125547         0.372501         0.318823
 H         1.699365        -0.597202        -1.029493
 H         1.371792         1.159859        -1.011445
 H        -2.711259        -1.289003         1.370476
 H        -2.361971         1.185562         1.378126
 H        -2.960275        -0.022881        -1.325873
 H        -3.311545        -3.138415        -0.685246
 H        -4.230925        -3.233802        -2.602153
 H        -3.708343        -1.764945        -3.424876
 H        -2.453947        -2.855369        -2.935184
