19
Iteration:  1921
 C         1.366613        -0.055050        -0.517633
 C         0.044067        -0.060226        -0.033384
 C        -1.191865        -0.141666         0.211310
 C        -2.673209        -0.196150         0.380873
 O        -3.268243         1.095487         0.475271
 C        -3.260253        -0.782780        -0.908995
 O        -4.347705        -1.645162        -0.606102
 C        -3.107141        -2.270320        -0.947412
 C        -3.301891        -3.048875        -2.244259
 H         1.713873        -1.009420        -1.125075
 H         1.518021         0.745689        -1.209641
 H         1.987744         0.064886         0.394927
 H        -2.887640        -0.833985         1.276801
 H        -3.162587         1.370469         1.437541
 H        -3.302761        -0.081146        -1.713146
 H        -2.672283        -2.746669        -0.056191
 H        -4.060835        -3.847046        -1.985419
 H        -3.509839        -2.404251        -3.134704
 H        -2.392528        -3.679962        -2.361836
