19
Iteration:  2055
 C         1.391255         0.221902        -0.380725
 C         0.004514        -0.083594        -0.186487
 C        -1.174864        -0.135670         0.121558
 C        -2.556476        -0.278779         0.384984
 O        -3.154947         0.993625         0.734837
 C        -3.124779        -0.919119        -0.924110
 O        -4.457381        -1.404642        -0.799226
 C        -3.330598        -2.339910        -0.949987
 C        -3.393553        -3.268131        -2.183614
 H         2.021787        -0.129794         0.519203
 H         1.882208        -0.195791        -1.231348
 H         1.369044         1.300363        -0.479983
 H        -2.699145        -0.845508         1.401821
 H        -2.520480         1.689287         0.458954
 H        -2.635614        -0.439786        -1.793936
 H        -3.137501        -2.895903        -0.075993
 H        -4.356040        -3.767271        -2.232663
 H        -3.560401        -2.517292        -3.039231
 H        -2.465366        -3.862739        -2.356608
