19
Iteration:   313charge 0 multiplicity 1
 C         1.589291         0.162984        -0.034141
 C         0.105405        -0.016679         0.154178
 C        -1.077422        -0.060771        -0.107298
 C        -2.644649        -0.045989         0.071015
 O        -3.262700         1.130012        -0.052359
 C        -3.277468        -0.934579        -0.901780
 O        -4.579426        -1.639534        -0.623143
 C        -3.414885        -2.369291        -0.722895
 C        -3.199358        -3.379371        -1.926219
 H         1.908951        -0.368202        -0.937085
 H         1.718090         1.211102        -0.367681
 H         2.211857        -0.268068         0.878390
 H        -2.899135        -0.544895         1.036370
 H        -2.931583         1.893619         0.507473
 H        -3.232863        -0.423147        -1.855377
 H        -2.979594        -2.801049         0.258826
 H        -3.755333        -4.316984        -1.677862
 H        -3.532390        -2.839271        -2.822771
 H        -2.124554        -3.545806        -1.909876
