19
Iteration:  1398charge 0 multiplicity 1
 C         1.511082         0.314045        -0.214779
 C         0.060913         0.199504        -0.175967
 C        -1.097402        -0.224714         0.058795
 C        -2.486301        -0.313340         0.260460
 O        -3.069481         1.041179         0.520011
 C        -3.143231        -0.990889        -0.961308
 O        -4.498277        -1.374153        -0.854074
 C        -3.492467        -2.454394        -0.854015
 C        -3.518744        -3.311605        -2.028121
 H         1.879052        -0.571835        -0.844224
 H         1.777061         1.252930        -0.663883
 H         1.927137         0.403420         0.832890
 H        -2.615261        -1.106685         1.064391
 H        -3.113549         1.180262         1.530960
 H        -2.940776        -0.656190        -1.963106
 H        -3.463746        -3.026109         0.064614
 H        -4.338417        -4.110940        -1.889323
 H        -3.666608        -2.760204        -2.975060
 H        -2.472559        -3.768973        -2.130669
