19
Iteration:  2409
 C         1.373275         0.032856        -0.492109
 C        -0.103905        -0.230149        -0.293792
 C        -1.192904        -0.075528         0.179040
 C        -2.651149        -0.208505         0.406800
 O        -3.243907         1.037601         0.877837
 C        -3.211711        -0.877103        -0.904442
 O        -4.461754        -1.574042        -0.697161
 C        -3.237759        -2.323297        -0.968964
 C        -3.131222        -2.974590        -2.301642
 H         1.926903        -0.621730        -1.183803
 H         1.704491         1.141011        -0.734728
 H         1.895527        -0.337082         0.528698
 H        -2.945973        -0.751855         1.275476
 H        -2.611691         1.657204         0.510707
 H        -2.884721        -0.245235        -1.758402
 H        -2.587107        -2.801917        -0.211302
 H        -3.839973        -3.876697        -2.469619
 H        -3.502220        -2.135207        -2.995809
 H        -2.122317        -3.453518        -2.621791
