19
Iteration:  4877charge 0 multiplicity 1
 C         1.396739         0.309275        -0.460444
 C         0.107689        -0.182726         0.027228
 C        -1.079814        -0.357809         0.205228
 C        -2.405388        -0.596523         0.504585
 O        -3.123278         0.461556         1.215667
 C        -3.120053        -0.920876        -0.818447
 O        -4.457550        -1.309842        -0.738961
 C        -3.440438        -2.251513        -1.343006
 C        -3.590086        -2.380318        -2.759935
 H         2.063182        -0.031171         0.394852
 H         1.865599        -0.126490        -1.385074
 H         1.255137         1.381704        -0.316934
 H        -2.521501        -1.428039         1.262468
 H        -2.955571         1.365372         0.877349
 H        -3.005985        -0.071344        -1.668176
 H        -3.243918        -3.141961        -0.646517
 H        -4.210172        -3.208379        -3.115828
 H        -3.857786        -1.560483        -3.407438
 H        -2.623860        -2.940969        -3.140721
