19
Iteration:  1652
 C         1.464537         0.119153        -0.369993
 C         0.104542        -0.006056        -0.039199
 C        -1.143618        -0.220313         0.029631
 C        -2.610733        -0.203389         0.236969
 O        -3.165803         1.072308         0.497451
 C        -3.311832        -0.895176        -0.865441
 O        -4.504569        -1.565399        -0.573310
 C        -3.311898        -2.388104        -0.889523
 C        -3.288867        -3.108868        -2.254912
 H         1.882972         0.980147         0.151880
 H         1.984354        -0.780209         0.166799
 H         1.536000         0.069087        -1.472395
 H        -2.625697        -0.744707         1.148541
 H        -2.933624         1.467047         1.330780
 H        -3.384975        -0.258408        -1.785337
 H        -2.823547        -2.771244        -0.065109
 H        -3.986604        -3.972027        -2.214949
 H        -3.670854        -2.379935        -3.025445
 H        -2.190520        -3.169537        -2.476265
