19
Iteration:  4918
 C         1.585893         0.189606        -0.280136
 C         0.211710         0.127044        -0.033812
 C        -0.904161        -0.208414         0.245510
 C        -2.441032        -0.551763         0.397476
 O        -3.128799         0.417221         1.284565
 C        -3.295865        -0.793781        -0.798482
 O        -4.543371        -1.548895        -0.714638
 C        -3.447021        -2.165031        -1.433669
 C        -3.709505        -2.509758        -2.863606
 H         2.110388         0.039283         0.649680
 H         1.796647        -0.602651        -1.009557
 H         2.000665         1.137697        -0.754395
 H        -2.436118        -1.607386         1.038793
 H        -2.809825         1.273851         0.922573
 H        -3.363239        -0.068475        -1.571013
 H        -3.250408        -3.141689        -0.840554
 H        -4.742305        -2.931078        -2.956743
 H        -3.754791        -1.707112        -3.545577
 H        -2.901410        -3.237285        -3.106048
