19
Iteration:  1755
 C         1.427325        -0.071592        -0.309632
 C        -0.018157         0.051465        -0.077742
 C        -1.251810        -0.095022         0.159452
 C        -2.706240        -0.176678         0.263544
 O        -3.094391         1.192286         0.427992
 C        -3.411684        -0.876274        -0.841504
 O        -4.324900        -1.848393        -0.301536
 C        -3.139587        -2.324992        -1.064145
 C        -3.374985        -2.958150        -2.404408
 H         1.953861         0.552742        -1.061240
 H         2.032220         0.131576         0.618481
 H         1.581407        -1.146333        -0.468351
 H        -2.831887        -0.594714         1.244716
 H        -2.359387         1.778350         0.102123
 H        -3.568644        -0.178930        -1.654638
 H        -2.344167        -2.864431        -0.489280
 H        -3.795455        -4.008517        -2.301693
 H        -3.974974        -2.414583        -3.138728
 H        -2.395405        -3.224345        -2.850955
