19
Iteration:  2141charge 0 multiplicity 1
 C         1.644011         0.266049        -0.191633
 C         0.177661         0.112152         0.009803
 C        -1.028270        -0.070660        -0.020116
 C        -2.447010        -0.282358         0.195296
 O        -3.229609         0.916014         0.545097
 C        -3.228611        -1.039836        -0.813568
 O        -4.514792        -1.558376        -0.573839
 C        -3.468809        -2.523895        -0.937186
 C        -3.595001        -2.974929        -2.320333
 H         2.197932         0.940583         0.616833
 H         2.126484        -0.702741        -0.250998
 H         1.943976         0.688498        -1.163979
 H        -2.279474        -0.783723         1.258002
 H        -3.616299         1.494042        -0.166244
 H        -3.043779        -0.582183        -1.844481
 H        -3.238305        -3.138961        -0.085177
 H        -4.131348        -3.949928        -2.374637
 H        -4.168134        -2.293843        -3.004738
 H        -2.637772        -3.117514        -2.864501
