19
Iteration:  2173
 C         1.531662         0.305782        -0.101271
 C         0.074104         0.021068        -0.255465
 C        -1.087898        -0.092292         0.075080
 C        -2.435187        -0.303807         0.285774
 O        -3.161457         0.967705         0.524874
 C        -3.205113        -1.052072        -0.814710
 O        -4.403125        -1.560451        -0.512871
 C        -3.410337        -2.410315        -1.064921
 C        -3.666453        -3.052975        -2.352357
 H         1.795918         1.182222         0.666006
 H         1.978062        -0.532640         0.427749
 H         2.146089         0.482167        -1.006172
 H        -2.553155        -0.892052         1.213139
 H        -2.805306         1.667758        -0.013604
 H        -2.984625        -0.421929        -1.725219
 H        -3.013775        -3.053974        -0.225233
 H        -4.038267        -4.084948        -2.205763
 H        -4.477451        -2.543779        -2.950576
 H        -2.731478        -3.188525        -2.918031
