19
Iteration:  4868charge 0 multiplicity 1
 C         1.405310         0.321467        -0.434527
 C         0.080090        -0.199057        -0.073453
 C        -1.052658        -0.465951         0.284012
 C        -2.464893        -0.598184         0.575409
 O        -3.124822         0.461643         1.192445
 C        -3.083375        -0.910565        -0.826552
 O        -4.485901        -1.315971        -0.789793
 C        -3.500505        -2.185055        -1.292655
 C        -3.531092        -2.434327        -2.768136
 H         2.252535         0.113086         0.298721
 H         1.678003         0.192302        -1.516189
 H         1.405708         1.405708        -0.476995
 H        -2.459894        -1.338435         1.277267
 H        -2.867048         1.316798         0.787098
 H        -2.833559        -0.091114        -1.636431
 H        -3.034563        -3.007727        -0.725482
 H        -4.326968        -3.165513        -2.913078
 H        -3.940380        -1.454921        -3.217437
 H        -2.446224        -2.549485        -3.145538
