19
Iteration:  2681
 C         1.496222         0.269237        -0.291594
 C         0.156925        -0.014341         0.057157
 C        -1.064564        -0.151899         0.239733
 C        -2.606041        -0.293939         0.331720
 O        -2.969252         0.964357         0.740765
 C        -3.340204        -0.897214        -0.921119
 O        -4.508120        -1.729228        -0.574721
 C        -3.444804        -2.327122        -1.177292
 C        -3.517139        -2.958973        -2.553587
 H         1.902924         1.044582         0.350273
 H         2.201948        -0.598771        -0.051090
 H         1.593785         0.454988        -1.403522
 H        -2.888814        -0.954158         1.186842
 H        -2.394144         1.619404         0.296806
 H        -3.436225        -0.165825        -1.741914
 H        -2.893371        -2.972743        -0.353285
 H        -3.934067        -3.901897        -2.224050
 H        -4.273106        -2.585194        -3.284992
 H        -2.512764        -3.100560        -2.919883
