19
Iteration:  2861
 C         1.537251         0.270342        -0.326888
 C         0.097992        -0.082864        -0.261235
 C        -1.071846        -0.116785         0.159618
 C        -2.544235        -0.339473         0.506617
 O        -3.208818         0.685685         0.985793
 C        -3.117913        -0.848379        -0.892423
 O        -4.457902        -1.337487        -0.841347
 C        -3.440985        -2.316299        -1.133688
 C        -3.528830        -3.037539        -2.371957
 H         1.872724         0.425800        -1.402900
 H         1.708251         1.140440         0.323074
 H         2.037332        -0.551555         0.186719
 H        -2.786100        -1.310459         1.054190
 H        -3.065030         1.297016         0.234125
 H        -2.998397        -0.117462        -1.762652
 H        -2.918305        -2.757024        -0.233374
 H        -4.130627        -3.995662        -2.219572
 H        -3.881476        -2.573523        -3.264451
 H        -2.458016        -3.359697        -2.657862
