19
Iteration:  4904
 C         1.611272         0.225960        -0.375869
 C         0.128498         0.008588         0.060336
 C        -1.054872        -0.206808         0.221900
 C        -2.414544        -0.568573         0.495101
 O        -3.096474         0.416729         1.245488
 C        -3.207833        -0.863322        -0.881968
 O        -4.531981        -1.467713        -0.695778
 C        -3.512947        -2.206582        -1.387009
 C        -3.653726        -2.479754        -2.849302
 H         2.291048         0.032779         0.437636
 H         1.952661        -0.480778        -1.124747
 H         1.656425         1.296007        -0.646129
 H        -2.453092        -1.432154         1.130361
 H        -2.910502         1.319981         0.934480
 H        -3.250646        -0.035131        -1.519164
 H        -2.972403        -2.912122        -0.812631
 H        -4.549154        -3.096482        -3.112423
 H        -3.624852        -1.543977        -3.511013
 H        -2.942487        -3.148052        -3.223016
