19
Iteration:  1292charge 0 multiplicity 1
 C         1.545545         0.158302        -0.148224
 C         0.080302         0.056425        -0.060411
 C        -1.138551        -0.099606         0.103829
 C        -2.560742        -0.221917         0.252774
 O        -3.154772         1.148625         0.212550
 C        -3.212781        -0.979728        -0.871261
 O        -4.436988        -1.568251        -0.485644
 C        -3.321866        -2.443661        -0.948571
 C        -3.499384        -3.190242        -2.214634
 H         1.781127         0.447269        -1.167171
 H         1.977079         1.046243         0.456823
 H         2.066323        -0.775350        -0.002171
 H        -2.585957        -0.729964         1.203767
 H        -3.937840         1.336864         0.867050
 H        -3.113228        -0.475914        -1.856805
 H        -2.900871        -3.090086        -0.195927
 H        -4.235412        -3.986845        -2.140423
 H        -3.836366        -2.618485        -3.021877
 H        -2.560672        -3.669028        -2.423333
