19
Iteration:   924charge 0 multiplicity 1
 C         1.569474         0.133527        -0.107651
 C         0.073149         0.144471        -0.093410
 C        -1.145000        -0.036666         0.097916
 C        -2.686296        -0.122740         0.297661
 O        -3.055598         1.234001         0.360431
 C        -3.211975        -0.982048        -1.001920
 O        -4.504918        -1.635640        -0.787329
 C        -3.391705        -2.462409        -0.834845
 C        -3.352916        -3.388787        -2.051438
 H         1.942106        -0.829284         0.349548
 H         1.883026         0.473835        -1.027429
 H         1.802785         0.923671         0.657739
 H        -2.929596        -0.590587         1.235316
 H        -3.715019         1.296773        -0.420454
 H        -3.099134        -0.643046        -2.020832
 H        -3.217633        -2.836282         0.167223
 H        -4.038914        -4.130037        -1.895098
 H        -3.665070        -2.855618        -2.925954
 H        -2.354016        -3.679064        -2.256276
