19
Iteration:  3443
 C         1.452306         0.346556        -0.367280
 C         0.184417        -0.160634        -0.067397
 C        -1.001348        -0.318687         0.123594
 C        -2.471221        -0.495575         0.425710
 O        -3.166921         0.812033         0.907515
 C        -3.207566        -0.774245        -0.853448
 O        -4.566251        -1.432652        -0.632297
 C        -3.386680        -2.294100        -1.171948
 C        -3.549121        -2.920605        -2.639896
 H         1.858282         0.032820        -1.221969
 H         1.551373         1.435272        -0.395936
 H         2.096144         0.067354         0.456463
 H        -2.753049        -1.273737         1.229015
 H        -2.574067         1.270975         1.549628
 H        -3.176543         0.053957        -1.527026
 H        -3.096628        -2.997698        -0.469703
 H        -4.340028        -3.648853        -2.668970
 H        -3.651356        -2.088071        -3.302158
 H        -2.543695        -3.405882        -2.718680
