19
Iteration:  3118charge 0 multiplicity 1
 C         1.491095        -0.042545        -0.303880
 C         0.044108        -0.161490        -0.138295
 C        -1.146979        -0.103707         0.069279
 C        -2.589246        -0.257072         0.430404
 O        -3.290709         0.937790         0.833838
 C        -3.296273        -0.732407        -0.899133
 O        -4.315551        -1.830115        -0.449227
 C        -3.166607        -2.172385        -1.236517
 C        -3.490384        -2.762797        -2.583077
 H         2.080088        -0.065452         0.766407
 H         1.903290        -0.864748        -0.990396
 H         1.718969         0.800825        -0.874243
 H        -2.590454        -0.956338         1.218860
 H        -2.771827         1.540435         1.408336
 H        -3.678318         0.012298        -1.575383
 H        -2.416566        -2.693822        -0.695712
 H        -4.143514        -3.682496        -2.476965
 H        -4.110084        -1.994514        -3.119250
 H        -2.549466        -2.923503        -3.150073
