19
Iteration:    63
 C         1.548671         0.188726        -0.049059
 C         0.045330         0.169587         0.026736
 C        -1.191164        -0.014147         0.067786
 C        -2.630273        -0.173200         0.143367
 O        -3.222756         1.176776         0.021950
 C        -3.094232        -1.069383        -1.003332
 O        -4.485768        -1.389629        -0.801190
 C        -3.440516        -2.487122        -0.744147
 C        -3.298955        -3.549474        -1.722356
 H         2.143217         0.650009         0.796073
 H         1.843971        -0.804647        -0.595731
 H         1.847354         0.929021        -0.793879
 H        -3.100480        -0.695467         1.034534
 H        -2.517698         1.709982        -0.355023
 H        -2.930248        -0.768111        -2.034943
 H        -3.410367        -2.869392         0.291748
 H        -4.173258        -4.227364        -1.501295
 H        -3.408816        -3.104309        -2.715753
 H        -2.338264        -4.060189        -1.586633
