19
Iteration:  4197
 C         1.519574         0.266116        -0.295925
 C         0.138650         0.004832        -0.023712
 C        -1.020332        -0.359439         0.072863
 C        -2.464827        -0.541860         0.455128
 O        -3.150286         0.678235         1.059654
 C        -3.222140        -0.831394        -0.850695
 O        -4.510902        -1.463099        -0.607137
 C        -3.395377        -2.212881        -1.372812
 C        -3.620996        -2.714495        -2.736315
 H         2.000391        -0.416262         0.326918
 H         1.793953         0.223079        -1.397895
 H         1.771883         1.335814         0.087787
 H        -2.667621        -1.309311         1.274929
 H        -2.564404         1.001059         1.755030
 H        -2.953587         0.061675        -1.512461
 H        -2.992586        -2.936525        -0.643652
 H        -4.494600        -3.393850        -2.896367
 H        -3.852656        -1.835168        -3.458854
 H        -2.785355        -3.396143        -3.026319
