19
Iteration:   979charge 0 multiplicity 1
 C         1.452375         0.082481        -0.285534
 C         0.061766        -0.133129        -0.051972
 C        -1.145431        -0.150079         0.199906
 C        -2.615836        -0.159891         0.249453
 O        -3.350944         1.158103         0.213027
 C        -3.201427        -0.915404        -0.937055
 O        -4.531492        -1.500593        -0.782034
 C        -3.269884        -2.316229        -0.798925
 C        -3.144341        -3.241169        -1.968626
 H         2.162466        -0.558999         0.392441
 H         1.667057        -0.296673        -1.262706
 H         1.732513         1.169590        -0.163969
 H        -2.880365        -0.648963         1.173106
 H        -3.013932         1.495227         1.112237
 H        -3.090776        -0.416161        -1.888076
 H        -3.306231        -2.743568         0.196847
 H        -3.562154        -4.186611        -1.892856
 H        -3.277128        -2.634613        -2.840899
 H        -2.079130        -3.572526        -1.909343
