19
Iteration:  3805charge 0 multiplicity 1
 C         1.349702        -0.020003        -0.649927
 C        -0.021095        -0.248413        -0.156183
 C        -1.160559        -0.268584         0.326836
 C        -2.605820        -0.366803         0.568755
 O        -3.310840         0.924210         1.063760
 C        -3.138546        -0.887476        -0.773584
 O        -4.419527        -1.576125        -0.623049
 C        -3.233085        -2.287193        -1.220827
 C        -3.190184        -2.539494        -2.620370
 H         1.431531         1.128592        -0.543403
 H         2.116643        -0.645371        -0.192211
 H         1.290628        -0.063308        -1.687596
 H        -2.724668        -1.000651         1.426418
 H        -2.944261         1.507469         0.365735
 H        -2.918045        -0.216227        -1.704672
 H        -2.998740        -3.189443        -0.554905
 H        -4.141981        -3.043518        -2.976710
 H        -3.308887        -1.537069        -3.185547
 H        -2.233510        -2.989528        -2.945630
