19
Iteration:  1605
 C         1.434607         0.111532        -0.269677
 C         0.006777         0.059255        -0.342241
 C        -1.172402        -0.101404         0.055562
 C        -2.540301        -0.247044         0.346921
 O        -3.113836         1.108435         0.753618
 C        -3.236264        -0.901995        -0.886437
 O        -4.481630        -1.457814        -0.736935
 C        -3.365255        -2.390856        -0.969964
 C        -3.324473        -3.332888        -2.213630
 H         1.744850         0.604187         0.727967
 H         1.947346        -0.820791        -0.215217
 H         1.788865         0.726311        -1.178786
 H        -2.734638        -0.988460         1.145787
 H        -2.652981         1.979865         0.564855
 H        -3.119106        -0.503181        -1.865155
 H        -3.231060        -2.943803        -0.015007
 H        -4.020193        -4.117668        -1.903413
 H        -3.647337        -2.925835        -3.126798
 H        -2.292292        -3.652262        -2.331379
