19
Iteration:  2517
 C         1.396730         0.037072        -0.466325
 C        -0.040778        -0.205107        -0.146890
 C        -1.166594        -0.229781         0.254910
 C        -2.620419        -0.202027         0.528078
 O        -3.303136         1.104054         0.695331
 C        -3.132697        -0.804138        -0.799710
 O        -4.432016        -1.601772        -0.602544
 C        -3.113926        -2.322048        -1.089358
 C        -3.309542        -2.962383        -2.440170
 H         1.829072        -0.862074        -0.244628
 H         1.547229         0.047726        -1.595629
 H         1.776732         1.019729        -0.023827
 H        -2.885702        -0.913727         1.346199
 H        -2.833790         1.903232         0.421590
 H        -3.386464        -0.187529        -1.702701
 H        -2.655753        -3.126786        -0.344866
 H        -3.747441        -3.983468        -2.538903
 H        -3.882644        -2.551803        -3.287998
 H        -2.263878        -3.002532        -2.864356
