19
Iteration:   886
 C         1.558848         0.208135        -0.021091
 C         0.080213         0.122073         0.115760
 C        -1.114472        -0.014739        -0.023063
 C        -2.540773        -0.174207         0.182224
 O        -3.144091         1.087296         0.132638
 C        -3.176636        -0.967428        -0.996677
 O        -4.496919        -1.516373        -0.602160
 C        -3.416210        -2.474726        -0.872267
 C        -3.465582        -3.371749        -2.075328
 H         2.149331        -0.648131        -0.196869
 H         1.824252         0.904845        -0.923257
 H         2.006566         0.680102         0.833323
 H        -2.786466        -0.778543         1.062667
 H        -3.789732         1.354560         0.813361
 H        -3.087823        -0.410864        -1.979165
 H        -3.115057        -3.068892         0.048951
 H        -4.110423        -4.331836        -2.001663
 H        -3.606081        -2.779608        -3.014893
 H        -2.440239        -3.856337        -2.140763
