19
Iteration:  3025charge 0 multiplicity 1
 C         1.475917         0.102036        -0.377002
 C         0.070725        -0.032911        -0.045683
 C        -1.118053        -0.237071         0.131019
 C        -2.497042        -0.404189         0.387083
 O        -3.109134         0.998509         0.760281
 C        -3.363950        -0.824992        -0.800007
 O        -4.522057        -1.702145        -0.509824
 C        -3.368743        -2.271576        -1.202965
 C        -3.328826        -2.792320        -2.575081
 H         2.083943        -0.829363        -0.104363
 H         1.753960         0.389764        -1.405708
 H         1.927509         1.056754         0.208780
 H        -2.790824        -1.124623         1.171291
 H        -2.621622         1.466882         1.465197
 H        -3.651735        -0.127036        -1.640717
 H        -3.075364        -3.123113        -0.469421
 H        -3.758360        -3.766421        -2.472391
 H        -3.963223        -2.258371        -3.220557
 H        -2.356163        -2.782676        -3.019038
