19
Iteration:  3200
 C         1.475932        -0.049861        -0.454836
 C         0.047107        -0.147424        -0.101060
 C        -1.136453        -0.241853         0.229862
 C        -2.581748        -0.342637         0.487985
 O        -3.282681         1.038577         0.636368
 C        -3.259102        -0.881374        -0.693420
 O        -4.400706        -1.815247        -0.496788
 C        -3.245196        -2.284410        -1.097211
 C        -3.388759        -2.541736        -2.665434
 H         1.856690         0.865514         0.110121
 H         2.097099        -0.812944        -0.013530
 H         1.717674         0.386030        -1.572056
 H        -2.605074        -0.874163         1.411198
 H        -2.844361         1.607261         1.306349
 H        -3.536639        -0.022773        -1.368906
 H        -2.561909        -3.039206        -0.576156
 H        -3.784025        -3.541973        -2.960431
 H        -4.053603        -1.768670        -3.126488
 H        -2.406742        -2.401074        -3.183474
