19
Iteration:  2489
 C         1.376711         0.025055        -0.519412
 C        -0.006034        -0.149803        -0.053978
 C        -1.194537        -0.117820         0.237069
 C        -2.622146        -0.303459         0.447436
 O        -3.122433         1.088763         0.717165
 C        -3.290769        -0.882380        -0.806013
 O        -4.541393        -1.638534        -0.680457
 C        -3.212500        -2.362901        -0.978078
 C        -3.161509        -2.847937        -2.372760
 H         1.914299        -1.009210        -0.581037
 H         1.358798         0.406192        -1.540223
 H         2.032818         0.727101         0.035011
 H        -2.914967        -0.910063         1.335407
 H        -3.137955         1.472360        -0.185682
 H        -3.240000        -0.257734        -1.710343
 H        -2.868565        -3.020040        -0.254253
 H        -3.535805        -3.883517        -2.501159
 H        -3.630794        -2.186026        -3.157868
 H        -2.140298        -2.755909        -2.740029
