19
Iteration:  2089charge 0 multiplicity 1
 C         1.538693         0.223474        -0.306532
 C         0.084927         0.076968        -0.144446
 C        -1.068553        -0.167937         0.168865
 C        -2.570461        -0.281762         0.346971
 O        -3.156319         0.994566         0.701153
 C        -3.151349        -0.895438        -0.943529
 O        -4.499555        -1.523201        -0.682925
 C        -3.331107        -2.368806        -1.032720
 C        -3.542149        -3.218751        -2.252969
 H         1.993299         0.375870         0.700371
 H         1.967421        -0.550367        -0.956304
 H         1.705083         1.199319        -0.771398
 H        -2.741631        -0.897118         1.372956
 H        -3.441355         1.444184        -0.153135
 H        -2.886616        -0.532926        -1.952517
 H        -2.964704        -2.730742        -0.083222
 H        -4.465945        -3.769586        -2.118237
 H        -3.505223        -2.395625        -3.044996
 H        -2.792512        -3.978690        -2.586807
