19
Iteration:  1655charge 0 multiplicity 1
 C         1.456351         0.129114        -0.366581
 C         0.085964        -0.032736        -0.012252
 C        -1.122762        -0.216786         0.019193
 C        -2.599220        -0.197409         0.237046
 O        -3.176767         1.069531         0.476139
 C        -3.305809        -0.889912        -0.862073
 O        -4.501600        -1.558276        -0.538540
 C        -3.335471        -2.392176        -0.876357
 C        -3.273809        -3.103246        -2.280333
 H         1.967324         0.980118         0.059842
 H         2.068803        -0.741856         0.093268
 H         1.486699        -0.018598        -1.438416
 H        -2.668223        -0.830462         1.148627
 H        -3.023814         1.493784         1.336920
 H        -3.400237        -0.330816        -1.833582
 H        -2.720959        -2.668205         0.011320
 H        -3.986203        -3.956319        -2.309214
 H        -3.660427        -2.402239        -3.107577
 H        -2.185627        -3.149428        -2.548709
