19
Iteration:  4448
 C         1.581232        -0.030301        -0.452498
 C         0.111208        -0.088584        -0.040528
 C        -1.129345        -0.245144         0.201712
 C        -2.610693        -0.389328         0.473045
 O        -3.253909         0.812032         1.076103
 C        -3.414863        -0.826863        -0.789009
 O        -4.340403        -1.804327        -0.467169
 C        -3.292526        -2.217479        -1.363001
 C        -3.406670        -2.333265        -2.873003
 H         2.023143         0.830834        -0.831002
 H         2.123939        -0.459222         0.374945
 H         1.609554        -0.687991        -1.401946
 H        -2.662361        -1.262616         1.153360
 H        -2.608867         1.058984         1.771721
 H        -3.844542        -0.004268        -1.329931
 H        -2.652527        -2.843707        -0.949361
 H        -4.005150        -3.203769        -3.131395
 H        -4.090777        -1.505646        -3.048897
 H        -2.552122        -2.371825        -3.487168
