19
Iteration:  1696
 C         1.514725         0.070012        -0.392263
 C         0.122778        -0.174522        -0.031438
 C        -1.116947        -0.054824         0.231809
 C        -2.540065        -0.160041         0.388076
 O        -3.251644         1.113395         0.239072
 C        -3.296047        -0.877005        -0.770670
 O        -4.497301        -1.735033        -0.432049
 C        -3.273340        -2.396787        -0.941964
 C        -3.344753        -2.985371        -2.406512
 H         1.592900         1.159848        -0.567981
 H         2.145614        -0.382717         0.481447
 H         1.536728        -0.437572        -1.378675
 H        -2.803557        -0.569614         1.398115
 H        -3.153129         1.578517         1.061857
 H        -3.307987        -0.237757        -1.708103
 H        -2.766820        -3.008534        -0.245523
 H        -3.963327        -3.916979        -2.399499
 H        -3.926742        -2.186378        -2.967938
 H        -2.275819        -2.998283        -2.790972
