19
Iteration:  3438charge 0 multiplicity 1
 C         1.480544         0.323809        -0.381131
 C         0.164022        -0.110692        -0.046176
 C        -1.013911        -0.334594         0.139850
 C        -2.459915        -0.454788         0.473584
 O        -3.173275         0.790766         0.900263
 C        -3.205130        -0.811074        -0.846295
 O        -4.544965        -1.451644        -0.658782
 C        -3.412703        -2.252209        -1.184765
 C        -3.547152        -2.927838        -2.652479
 H         1.937469        -0.033912        -1.510741
 H         1.555713         1.434286        -0.321822
 H         2.183577         0.006319         0.444733
 H        -2.769537        -1.207902         1.156774
 H        -2.601063         1.260679         1.521206
 H        -3.303242         0.083580        -1.536860
 H        -3.053068        -2.883314        -0.246759
 H        -4.363679        -3.695286        -2.579202
 H        -3.678360        -1.999713        -3.310096
 H        -2.595264        -3.474232        -2.785618
