19
Iteration:  3911charge 0 multiplicity 1
 C         1.348125        -0.092522        -0.465441
 C         0.035343        -0.181326        -0.167210
 C        -1.139970        -0.058518         0.129510
 C        -2.523904        -0.428700         0.449962
 O        -3.237227         0.733975         1.140637
 C        -3.320643        -0.755704        -0.850906
 O        -4.487398        -1.568510        -0.688880
 C        -3.198949        -2.161216        -1.173529
 C        -3.275133        -2.650494        -2.631479
 H         1.425133         0.713659        -1.253415
 H         1.829723         0.447713         0.395806
 H         1.937158        -0.952968        -0.807882
 H        -2.452516        -1.245016         1.251113
 H        -2.579385         1.467232         1.137840
 H        -3.487170         0.086452        -1.522552
 H        -2.622278        -2.724722        -0.383277
 H        -3.269509        -3.757760        -2.496252
 H        -4.068659        -2.219372        -3.159343
 H        -2.334753        -2.415018        -3.145802
