19
Iteration:  1712
 C         1.491670        -0.003828        -0.375519
 C         0.059244        -0.040071        -0.127298
 C        -1.157659        -0.123376         0.272776
 C        -2.673300        -0.125685         0.436051
 O        -3.225071         1.213620         0.263054
 C        -3.231229        -1.010922        -0.704581
 O        -4.401077        -1.775378        -0.495084
 C        -3.195339        -2.406218        -1.007048
 C        -3.425924        -2.910440        -2.367407
 H         1.828316         0.984599        -0.693673
 H         2.081193        -0.213356         0.476319
 H         1.996489        -0.586678        -1.128033
 H        -3.009006        -0.632118         1.343466
 H        -2.808500         1.799656         0.923107
 H        -3.386443        -0.388932        -1.563027
 H        -2.684008        -3.079650        -0.213932
 H        -3.860374        -3.911106        -2.325971
 H        -4.072349        -2.260169        -2.923875
 H        -2.586684        -3.161712        -2.986791
