19
Iteration:  2580
 C         1.549280        -0.019196        -0.354532
 C         0.109190         0.078516         0.003482
 C        -1.143566        -0.087201        -0.028699
 C        -2.530227        -0.133752         0.358014
 O        -3.268944         0.979871         0.711192
 C        -3.361800        -0.872355        -0.797719
 O        -4.467056        -1.714866        -0.524864
 C        -3.282923        -2.351401        -1.106772
 C        -3.348950        -2.957604        -2.524941
 H         2.180289        -0.431825         0.533698
 H         1.616448        -0.720808        -1.183998
 H         2.154963         0.799005        -0.676911
 H        -2.608605        -0.917690         1.172878
 H        -3.228882         1.460154         1.541493
 H        -3.398521        -0.116912        -1.665952
 H        -2.942012        -2.979921        -0.184333
 H        -4.047719        -3.766363        -2.364453
 H        -3.666402        -2.197291        -3.197860
 H        -2.289321        -3.135211        -2.818563
