19
Iteration:  4694
 C         1.484588        -0.088346        -0.475895
 C         0.079638         0.033539        -0.013445
 C        -1.098326        -0.135713         0.183719
 C        -2.468049        -0.438633         0.536988
 O        -3.235547         0.568908         1.278222
 C        -3.265417        -0.806671        -0.729950
 O        -4.514253        -1.606149        -0.660316
 C        -3.261701        -2.202775        -1.360349
 C        -3.468969        -2.407175        -2.901050
 H         1.520287        -0.872541        -1.345123
 H         1.701416         0.764453        -1.218593
 H         2.264050        -0.154319         0.238811
 H        -2.315526        -1.372985         1.287009
 H        -2.836946         1.432854         1.076033
 H        -3.419371         0.080301        -1.445913
 H        -2.722064        -3.116704        -0.959723
 H        -3.907110        -3.406482        -3.037725
 H        -4.040075        -1.575204        -3.360856
 H        -2.383611        -2.530283        -3.248639
