19
Iteration:  3083charge 0 multiplicity 1
 C         1.525841        -0.044067        -0.227752
 C         0.030481        -0.062592        -0.281742
 C        -1.172759        -0.055151        -0.021066
 C        -2.495975        -0.297578         0.467677
 O        -3.232592         0.914996         0.809092
 C        -3.289931        -0.840914        -0.837584
 O        -4.455551        -1.759121        -0.451367
 C        -3.304516        -2.279116        -1.124242
 C        -3.396150        -2.716418        -2.614172
 H         2.028770        -0.497228         0.757575
 H         1.915414        -0.624676        -1.116927
 H         1.875651         0.961541        -0.227184
 H        -2.587410        -1.119760         1.092714
 H        -2.695701         1.601555         1.252697
 H        -3.651162        -0.039297        -1.527275
 H        -2.580663        -2.805918        -0.526054
 H        -3.623176        -3.719014        -2.828431
 H        -4.137988        -2.076104        -3.143307
 H        -2.412883        -2.517629        -3.061622
