19
Iteration:  3759
 C         1.370484         0.079591        -0.634529
 C         0.003578        -0.062789        -0.023595
 C        -1.136703        -0.361124         0.348918
 C        -2.611525        -0.385361         0.547510
 O        -3.093549         0.906379         1.009515
 C        -3.232478        -0.821849        -0.790494
 O        -4.539764        -1.617401        -0.652042
 C        -3.312739        -2.270110        -1.201467
 C        -3.239679        -2.686193        -2.728212
 H         1.992763         0.946573        -0.166981
 H         1.730062        -0.940205        -0.486050
 H         1.273689         0.318863        -1.630369
 H        -3.089950        -1.099222         1.235505
 H        -2.259696         1.405547         0.870568
 H        -3.276904        -0.018889        -1.553623
 H        -2.741304        -2.771417        -0.404984
 H        -3.774579        -3.644014        -2.848737
 H        -3.776225        -1.959364        -3.268369
 H        -2.149419        -2.661016        -2.941745
