19
Iteration:   697charge 0 multiplicity 1
 C         1.488279         0.230530        -0.109400
 C         0.014064         0.135081        -0.011467
 C        -1.176956        -0.115142         0.148175
 C        -2.609320        -0.191530         0.228868
 O        -3.113403         1.163043         0.172346
 C        -3.192388        -0.943205        -0.943171
 O        -4.542982        -1.526661        -0.880230
 C        -3.360175        -2.440512        -0.780390
 C        -3.320224        -3.435016        -1.924816
 H         1.808554         0.913081        -0.888335
 H         2.062884         0.559695         0.798942
 H         1.715189        -0.842043        -0.286611
 H        -2.885414        -0.657461         1.184118
 H        -2.362712         1.718692         0.161233
 H        -2.759333        -0.409421        -1.792721
 H        -3.277734        -3.027246         0.224658
 H        -3.991834        -4.283458        -1.525294
 H        -3.648744        -2.969767        -2.891151
 H        -2.394093        -3.937332        -2.253390
