19
Iteration:  3903
 C         1.395098        -0.086898        -0.487076
 C        -0.015260        -0.202756        -0.147777
 C        -1.154634        -0.030020         0.165885
 C        -2.546758        -0.294456         0.445733
 O        -3.189243         0.687513         1.169152
 C        -3.313254        -0.739249        -0.883419
 O        -4.472709        -1.578574        -0.671320
 C        -3.251908        -2.195880        -1.150745
 C        -3.202972        -2.684414        -2.637804
 H         1.309107         0.815077        -1.361859
 H         2.001704         0.296763         0.384074
 H         1.692847        -1.034864        -0.865321
 H        -2.824122        -1.218093         1.109129
 H        -2.680931         1.517640         1.247026
 H        -3.437020        -0.023618        -1.789096
 H        -2.577218        -2.830173        -0.489701
 H        -3.503308        -3.744554        -2.797133
 H        -4.093332        -2.169131        -3.080627
 H        -2.331355        -2.441286        -3.237155
