19
Iteration:  4937
 C         1.659010         0.124773        -0.190861
 C         0.105227         0.184062        -0.082311
 C        -1.040761        -0.185991         0.119026
 C        -2.416580        -0.541518         0.469594
 O        -3.079270         0.385400         1.280147
 C        -3.283250        -0.792146        -0.914208
 O        -4.516856        -1.544796        -0.648135
 C        -3.389904        -2.190122        -1.421888
 C        -3.784611        -2.539778        -2.891909
 H         2.026159         0.236155         0.817451
 H         2.108780        -0.700522        -0.707867
 H         2.141790         0.983156        -0.723048
 H        -2.500291        -1.405242         0.960135
 H        -2.799136         1.311970         1.113435
 H        -3.434179         0.132916        -1.338546
 H        -2.716841        -2.820053        -0.931475
 H        -4.772928        -3.069088        -2.840276
 H        -3.796435        -1.595195        -3.492908
 H        -3.016396        -3.137835        -3.277430
