19
Iteration:  4013charge 0 multiplicity 1
 C         1.530500         0.222460        -0.292254
 C         0.125322        -0.113809         0.028898
 C        -1.063913        -0.439112         0.198859
 C        -2.495546        -0.464878         0.468997
 O        -3.116097         0.894880         0.774507
 C        -3.284110        -0.852613        -0.741509
 O        -4.474983        -1.796186        -0.521708
 C        -3.354250        -2.196312        -1.306515
 C        -3.607700        -2.537658        -2.784449
 H         1.727099         0.006755        -1.414146
 H         1.566637         1.274222        -0.059005
 H         2.381017        -0.125425         0.132681
 H        -2.800848        -1.106466         1.367519
 H        -2.691792         1.542152         1.351299
 H        -3.408051         0.019243        -1.467011
 H        -2.714570        -2.913689        -0.692601
 H        -4.473055        -3.093457        -3.006385
 H        -3.744351        -1.541442        -3.265921
 H        -2.695615        -2.964974        -3.121914
