19
Iteration:  2590charge 0 multiplicity 1
 C         1.546989         0.001572        -0.303439
 C         0.109071         0.035846        -0.080636
 C        -1.063506        -0.021766        -0.038473
 C        -2.480869        -0.194305         0.411731
 O        -3.310920         0.997521         0.687377
 C        -3.338219        -0.878759        -0.829005
 O        -4.492167        -1.729642        -0.508334
 C        -3.389848        -2.339762        -1.118706
 C        -3.338279        -2.915321        -2.467562
 H         2.094480        -0.388409         0.673246
 H         1.722844        -0.837381        -0.962462
 H         1.898370         0.907879        -0.736473
 H        -2.426333        -0.814919         1.314021
 H        -2.994013         1.249957         1.578755
 H        -3.486998        -0.257850        -1.748946
 H        -2.681990        -2.963891        -0.478937
 H        -3.904373        -3.823143        -2.720526
 H        -3.735532        -2.260384        -3.210625
 H        -2.298800        -3.227782        -2.735223
