19
Iteration:  1579charge 0 multiplicity 1
 C         1.511914         0.179167        -0.359728
 C         0.094444         0.003045        -0.139047
 C        -1.143789        -0.108455         0.000717
 C        -2.536223        -0.259813         0.307717
 O        -3.179028         0.956729         0.695947
 C        -3.183883        -0.907803        -0.941861
 O        -4.505019        -1.436714        -0.775523
 C        -3.424381        -2.352564        -0.894959
 C        -3.358904        -3.220332        -2.082383
 H         1.917473         0.347186         0.636855
 H         1.979816        -0.804109        -0.613865
 H         1.741718         1.014651        -1.034368
 H        -2.688190        -1.067543         1.091175
 H        -3.381987         1.704174         0.113495
 H        -3.154383        -0.429182        -1.959027
 H        -3.218506        -2.857770         0.157969
 H        -4.043776        -4.076678        -2.092716
 H        -3.525871        -2.460692        -2.898239
 H        -2.301492        -3.566819        -2.095281
