19
Iteration:  2435
 C         1.385335         0.009363        -0.506713
 C        -0.026904        -0.089683        -0.212726
 C        -1.225016        -0.212334         0.112377
 C        -2.597064        -0.207161         0.454384
 O        -3.168579         0.994651         0.777142
 C        -3.326727        -0.828789        -0.710812
 O        -4.554883        -1.604790        -0.715778
 C        -3.304556        -2.293757        -0.962344
 C        -3.014825        -2.929911        -2.349855
 H         1.901459        -0.863179        -1.022085
 H         1.620503         0.879961        -1.047430
 H         1.945963         0.042622         0.379373
 H        -2.844661        -0.733164         1.439471
 H        -2.896852         1.532966         0.009477
 H        -3.151355        -0.076207        -1.470984
 H        -2.982141        -2.995552        -0.249468
 H        -3.550669        -3.866608        -2.518689
 H        -3.280770        -2.184206        -3.111844
 H        -1.989587        -3.231620        -2.550827
