19
Iteration:  3145
 C         1.453299        -0.074391        -0.368460
 C         0.033979        -0.001900         0.063538
 C        -1.158076        -0.132045         0.137623
 C        -2.600365        -0.218991         0.396956
 O        -3.172649         0.971379         0.793136
 C        -3.361721        -0.830508        -0.870586
 O        -4.344780        -1.846960        -0.462780
 C        -3.078240        -2.211568        -1.271879
 C        -3.516233        -2.722710        -2.634046
 H         2.265105         0.063152         0.340766
 H         1.570192        -1.076394        -0.751962
 H         1.570871         0.560028        -1.403871
 H        -2.560658        -0.898361         1.330544
 H        -2.891483         1.346560         1.651386
 H        -3.767594        -0.100582        -1.634169
 H        -2.387054        -2.928756        -0.691629
 H        -4.239907        -3.562581        -2.420418
 H        -4.047423        -1.964519        -3.208269
 H        -2.609271        -3.011747        -3.202370
