19
Iteration:  2765
 C         1.498289         0.323222        -0.228364
 C         0.117183        -0.032725        -0.216643
 C        -0.996893        -0.274536         0.154672
 C        -2.484026        -0.373248         0.442587
 O        -3.216552         0.897001         0.751217
 C        -3.070589        -0.988719        -0.824446
 O        -4.525531        -1.504177        -0.624554
 C        -3.521823        -2.384067        -1.140297
 C        -3.538997        -2.911906        -2.464899
 H         1.556540         1.411036        -0.694685
 H         1.895715         0.066220         0.735563
 H         2.003861        -0.243190        -0.945074
 H        -2.683363        -0.856001         1.427720
 H        -2.716845         1.658824         0.409657
 H        -2.864297        -0.300979        -1.707361
 H        -3.159441        -3.007437        -0.377411
 H        -4.293474        -3.721126        -2.755592
 H        -3.537381        -2.169307        -3.282470
 H        -2.479164        -3.311109        -2.777994
