19
Iteration:  1122
 C         1.509022        -0.246030        -0.370539
 C        -0.029065        -0.015472        -0.033559
 C        -1.229299         0.072530         0.130691
 C        -2.656957        -0.069046         0.279353
 O        -3.249466         1.274563         0.397139
 C        -3.286422        -0.863406        -0.862563
 O        -4.472148        -1.660153        -0.724395
 C        -3.256035        -2.374923        -0.809779
 C        -3.062823        -3.179166        -2.094785
 H         2.038008         0.638727         0.147917
 H         1.902105        -1.165776         0.086954
 H         1.515996        -0.065074        -1.487556
 H        -2.898938        -0.671683         1.242779
 H        -4.166397         1.229660        -0.081498
 H        -3.165508        -0.448719        -1.862350
 H        -2.720280        -2.790746         0.083458
 H        -3.536142        -4.198662        -1.886021
 H        -3.465808        -2.652880        -3.030576
 H        -1.930388        -3.465639        -2.126716
