19
Iteration:  3382charge 0 multiplicity 1
 C         1.439081         0.091419        -0.436314
 C         0.069997         0.115664        -0.036774
 C        -1.080714        -0.116928         0.196766
 C        -2.496870        -0.420786         0.448155
 O        -3.238758         0.802095         0.918815
 C        -3.105079        -0.971707        -0.825503
 O        -4.379370        -1.494289        -0.647350
 C        -3.375292        -2.345655        -1.167661
 C        -3.565964        -2.734397        -2.610084
 H         1.394503         0.078858        -1.631401
 H         2.032948         0.915253        -0.041919
 H         1.757382        -0.942941        -0.180831
 H        -2.714328        -1.224515         1.113797
 H        -2.524975         1.245158         1.437063
 H        -2.991208        -0.288187        -1.708489
 H        -3.271707        -3.208333        -0.411373
 H        -4.122157        -3.716394        -2.762309
 H        -3.853178        -2.041543        -3.402057
 H        -2.546804        -3.034187        -2.843239
