19
Iteration:  4875
 C         1.405114         0.307906        -0.462972
 C         0.090971        -0.189344         0.014334
 C        -1.079619        -0.384044         0.220777
 C        -2.406578        -0.587901         0.514431
 O        -3.123036         0.460032         1.209295
 C        -3.110086        -0.921735        -0.829161
 O        -4.463028        -1.307476        -0.750869
 C        -3.452047        -2.239952        -1.341734
 C        -3.574340        -2.379337        -2.752961
 H         2.049507         0.013798         0.369724
 H         1.844567        -0.046650        -1.408931
 H         1.268721         1.417268        -0.321031
 H        -2.484899        -1.453712         1.370707
 H        -2.955435         1.372997         0.879147
 H        -3.009222        -0.134992        -1.631488
 H        -3.172690        -3.110363        -0.646285
 H        -4.240717        -3.198580        -3.093369
 H        -3.889995        -1.600185        -3.356251
 H        -2.618414        -2.868874        -3.107494
