19
Iteration:  2829charge 0 multiplicity 1
 C         1.515131         0.236706        -0.343618
 C         0.130637         0.124574         0.030323
 C        -1.063272        -0.166250         0.107558
 C        -2.529813        -0.339767         0.334617
 O        -3.140781         0.714141         1.009005
 C        -3.224693        -0.881630        -1.012717
 O        -4.520185        -1.318404        -0.756291
 C        -3.372551        -2.340331        -1.150215
 C        -3.533532        -3.126212        -2.399260
 H         1.634001         0.669791        -1.432685
 H         2.105836         0.770956         0.400942
 H         1.943729        -0.744657        -0.341822
 H        -2.900658        -1.294691         0.936483
 H        -2.760620         1.564547         0.694782
 H        -3.049542        -0.276651        -1.961929
 H        -2.957614        -2.875415        -0.255249
 H        -4.263072        -4.025614        -2.277335
 H        -3.856234        -2.434210        -3.200890
 H        -2.493270        -3.649669        -2.672814
