19
Iteration:    67charge 0 multiplicity 1
 C         1.541495         0.196578        -0.070678
 C         0.065082         0.159642         0.056960
 C        -1.173220        -0.013468         0.091549
 C        -2.625407        -0.151630         0.109088
 O        -3.215028         1.098657         0.017318
 C        -3.117708        -1.016110        -1.014274
 O        -4.503408        -1.404961        -0.816336
 C        -3.455492        -2.471293        -0.706813
 C        -3.301380        -3.533350        -1.719261
 H         2.110257         0.619448         0.772129
 H         1.877981        -0.772316        -0.459338
 H         1.822687         0.944180        -0.869109
 H        -2.978972        -0.635166         0.990391
 H        -2.558473         1.743614        -0.380907
 H        -2.913951        -0.747556        -2.051100
 H        -3.316985        -2.875305         0.259319
 H        -4.129364        -4.183583        -1.523374
 H        -3.386421        -3.085863        -2.705445
 H        -2.348560        -4.020293        -1.508134
