19
Iteration:   915charge 0 multiplicity 1
 C         1.566091         0.151728        -0.046106
 C         0.061543         0.199561        -0.063126
 C        -1.110033        -0.086136         0.103754
 C        -2.592413        -0.118215         0.209511
 O        -3.083276         1.260539         0.316699
 C        -3.205712        -0.977999        -0.931324
 O        -4.585684        -1.645005        -0.787093
 C        -3.344526        -2.471853        -0.848575
 C        -3.403437        -3.396873        -2.045166
 H         2.067933        -0.857311        -0.016911
 H         2.050022         0.447859        -1.008659
 H         2.055285         0.915850         0.629251
 H        -2.852386        -0.790757         1.098243
 H        -4.028980         1.443731        -0.073099
 H        -3.013943        -0.416625        -1.825074
 H        -3.162819        -3.119166         0.024983
 H        -4.070588        -4.296926        -2.021648
 H        -3.718891        -2.845775        -2.928444
 H        -2.387289        -3.800249        -2.190188
