19
Iteration:  1322charge 0 multiplicity 1
 C         1.569289         0.253984        -0.169439
 C         0.171181        -0.083421         0.061950
 C        -1.081277        -0.031910        -0.006569
 C        -2.518775        -0.217214         0.174526
 O        -3.192252         1.064546         0.388282
 C        -3.216746        -0.949115        -0.936844
 O        -4.495294        -1.562991        -0.578891
 C        -3.394354        -2.419895        -0.880987
 C        -3.548990        -3.208504        -2.145864
 H         1.520063         0.250890        -1.211298
 H         1.838586         1.235415         0.085034
 H         2.300720        -0.415183         0.267599
 H        -2.299865        -0.720989         1.156898
 H        -3.857108         1.316871        -0.254518
 H        -2.995385        -0.494031        -1.901196
 H        -2.943504        -2.960489        -0.106503
 H        -4.180353        -4.140267        -2.058365
 H        -3.731914        -2.498206        -2.980915
 H        -2.522900        -3.605035        -2.386755
