19
Iteration:  4339charge 0 multiplicity 1
 C         1.362283         0.147230        -0.549563
 C         0.079052        -0.196193         0.033899
 C        -1.150210        -0.208315         0.149198
 C        -2.518400        -0.536513         0.523944
 O        -3.112997         0.654288         1.180037
 C        -3.315991        -0.732962        -0.711668
 O        -4.564685        -1.481475        -0.762976
 C        -3.305267        -2.138118        -1.253526
 C        -3.301161        -2.628945        -2.756010
 H         2.007544         0.715983         0.072153
 H         1.869184        -0.866428        -0.657258
 H         1.423320         0.370061        -1.688859
 H        -2.439255        -1.435501         1.127677
 H        -2.328889         1.194891         1.388154
 H        -3.324767         0.156760        -1.338920
 H        -3.010645        -2.952463        -0.679278
 H        -3.611016        -3.676520        -2.907476
 H        -3.844796        -1.879148        -3.375772
 H        -2.219576        -2.757131        -3.105649
