19
Iteration:  2753charge 0 multiplicity 1
 C         1.456961         0.331523        -0.275811
 C         0.045625        -0.093267        -0.215703
 C        -1.049062        -0.289563         0.239579
 C        -2.441521        -0.305753         0.367318
 O        -3.164419         0.861807         0.699043
 C        -3.131956        -1.003068        -0.812220
 O        -4.504704        -1.488640        -0.612482
 C        -3.417040        -2.391409        -1.019627
 C        -3.529687        -2.848488        -2.549019
 H         1.672630         1.463624        -0.141602
 H         1.822747         0.141377         0.714032
 H         2.117141        -0.135441        -0.916633
 H        -2.582805        -1.090720         1.196526
 H        -2.770927         1.619739         0.231959
 H        -3.016991        -0.414300        -1.775972
 H        -3.197531        -3.189047        -0.384538
 H        -4.342712        -3.689349        -2.609172
 H        -3.820233        -1.988445        -3.136358
 H        -2.485275        -3.378402        -2.651216
