19
Iteration:  1425
 C         1.602106         0.416502        -0.301349
 C         0.202167        -0.056778        -0.028004
 C        -1.015270        -0.157112         0.072313
 C        -2.531187        -0.289775         0.294354
 O        -3.143706         0.981741         0.490799
 C        -3.195982        -0.965932        -0.953719
 O        -4.555130        -1.357795        -0.857208
 C        -3.529497        -2.428898        -0.854448
 C        -3.481338        -3.311460        -2.037445
 H         2.093280        -0.489786        -0.571646
 H         1.363672         1.153770        -1.119752
 H         2.169272         0.943363         0.438655
 H        -2.553585        -1.061557         1.060170
 H        -3.743653         1.128052         1.313084
 H        -3.005446        -0.524345        -1.981964
 H        -3.498635        -2.999151         0.162677
 H        -4.353928        -3.902868        -2.143061
 H        -3.435509        -2.721698        -2.959472
 H        -2.570036        -3.862543        -1.929383
