19
Iteration:  4217
 C         1.519784         0.280887        -0.352953
 C         0.119811        -0.063500         0.046948
 C        -1.048082        -0.290167         0.213283
 C        -2.461811        -0.536968         0.487706
 O        -3.055618         0.597441         0.936052
 C        -3.230259        -0.825370        -0.804954
 O        -4.572983        -1.536880        -0.760035
 C        -3.386582        -2.189217        -1.242983
 C        -3.585326        -2.610020        -2.675001
 H         2.416464        -0.161468         0.086244
 H         1.615355         0.037584        -1.489829
 H         1.628538         1.501312        -0.359119
 H        -2.567478        -1.432833         1.246399
 H        -2.613282         1.002555         1.701613
 H        -3.420087         0.090261        -1.491447
 H        -3.165765        -3.000993        -0.548198
 H        -4.621970        -3.039003        -2.973014
 H        -3.584614        -1.635307        -3.338875
 H        -2.865407        -3.418332        -2.982312
