19
Iteration:  2864charge 0 multiplicity 1
 C         1.543755         0.275806        -0.304520
 C         0.088642        -0.100488        -0.279126
 C        -1.071975        -0.139423         0.150445
 C        -2.548195        -0.334312         0.528363
 O        -3.226734         0.704929         0.994900
 C        -3.114286        -0.883790        -0.931841
 O        -4.465307        -1.314968        -0.838060
 C        -3.425778        -2.326213        -1.079199
 C        -3.514678        -3.019599        -2.384430
 H         1.918651         0.396668        -1.441323
 H         1.746788         1.252295         0.176200
 H         2.001994        -0.542919         0.130261
 H        -2.704901        -1.350344         1.197823
 H        -3.113630         1.298778         0.214921
 H        -3.009336        -0.171990        -1.826349
 H        -2.902614        -2.854498        -0.291099
 H        -4.155728        -3.986544        -2.294975
 H        -3.936260        -2.469203        -3.344280
 H        -2.373071        -3.357822        -2.694738
