19
Iteration:  3917charge 0 multiplicity 1
 C         1.407202        -0.048529        -0.466875
 C        -0.005263        -0.182115        -0.162507
 C        -1.167834        -0.105867         0.108496
 C        -2.531041        -0.455052         0.464473
 O        -3.257329         0.750451         1.111434
 C        -3.313340        -0.760375        -0.777427
 O        -4.476780        -1.577158        -0.689558
 C        -3.190885        -2.124043        -1.236687
 C        -3.293206        -2.646387        -2.582648
 H         1.625976         0.634407        -1.355497
 H         1.882901         0.370191         0.402668
 H         2.063857        -0.926478        -0.707677
 H        -2.357797        -1.276096         1.127167
 H        -2.540020         1.404338         1.063080
 H        -3.369834         0.136482        -1.403917
 H        -2.784838        -2.739531        -0.467111
 H        -3.267370        -3.731672        -2.531311
 H        -4.168991        -2.292440        -3.233257
 H        -2.326386        -2.376085        -3.069926
