19
Iteration:  4165charge 0 multiplicity 1
 C         1.506971         0.229489        -0.161668
 C         0.140963         0.001275        -0.174000
 C        -1.042492        -0.105874         0.152958
 C        -2.460818        -0.534492         0.317222
 O        -3.063522         0.592586         1.068643
 C        -3.299140        -0.836984        -0.913076
 O        -4.514056        -1.492136        -0.648436
 C        -3.365016        -2.242524        -1.317808
 C        -3.688382        -2.702838        -2.632089
 H         2.006290        -0.669000         0.149148
 H         2.189729         0.381581        -1.018556
 H         1.691874         0.949912         0.668925
 H        -2.492241        -1.364373         1.011092
 H        -2.277461         0.981883         1.508007
 H        -3.155537        -0.149182        -1.799980
 H        -3.071831        -3.125357        -0.702030
 H        -4.217784        -3.642067        -2.663693
 H        -4.298843        -1.885459        -3.159761
 H        -2.748328        -2.672631        -3.245306
