19
Iteration:  3878charge 0 multiplicity 1
 C         1.395928        -0.158478        -0.592137
 C         0.044921        -0.027887        -0.085480
 C        -1.157777        -0.122858         0.157344
 C        -2.581692        -0.357370         0.436004
 O        -3.271944         0.808658         1.302653
 C        -3.281185        -0.779949        -0.898603
 O        -4.429789        -1.593255        -0.687845
 C        -3.258355        -2.215740        -1.206379
 C        -3.219545        -2.659632        -2.640301
 H         1.508242         0.825495        -1.149968
 H         2.067405        -0.128983         0.305076
 H         1.524799        -1.077294        -1.226795
 H        -2.870845        -1.183464         1.194068
 H        -2.858099         1.645232         1.004890
 H        -3.427686        -0.047103        -1.664039
 H        -2.626709        -2.906027        -0.623001
 H        -3.676282        -3.682991        -2.688574
 H        -3.682598        -2.128264        -3.408534
 H        -2.151490        -2.787308        -2.879641
