19
Iteration:   582charge 0 multiplicity 1
 C         1.363424        -0.109321        -0.272613
 C        -0.063171        -0.041153        -0.027081
 C        -1.225912         0.161144         0.150038
 C        -2.646176        -0.096208         0.232892
 O        -3.284920         1.266646         0.090517
 C        -3.114862        -0.966133        -0.892983
 O        -4.473926        -1.567504        -0.750374
 C        -3.265483        -2.419693        -0.766357
 C        -3.035723        -3.330705        -1.922116
 H         1.859268         0.659284         0.333067
 H         1.604469        -1.065271         0.190791
 H         1.675698        -0.292295        -1.271954
 H        -3.046075        -0.337386         1.166494
 H        -3.195400         1.696750         0.918539
 H        -3.089364        -0.577901        -1.935978
 H        -3.217517        -2.942466         0.147461
 H        -3.692328        -4.195458        -1.796044
 H        -3.067403        -2.740332        -2.869189
 H        -1.949817        -3.632615        -1.650761
