19
Iteration:  2254charge 0 multiplicity 1
 C         1.525089         0.289467        -0.213614
 C         0.076526        -0.022768         0.022154
 C        -1.139032        -0.198529        -0.048479
 C        -2.494296        -0.258261         0.225866
 O        -3.025977         1.033617         0.510963
 C        -3.340046        -0.906786        -0.863287
 O        -4.518130        -1.670537        -0.427015
 C        -3.386348        -2.381297        -1.004835
 C        -3.463993        -3.050481        -2.469949
 H         1.445425         1.248592        -0.717252
 H         2.178485         0.324725         0.707688
 H         1.922708        -0.451114        -0.958735
 H        -2.698018        -0.844070         1.162566
 H        -2.669691         1.258727         1.379653
 H        -3.619423        -0.216932        -1.653177
 H        -3.035193        -2.945929        -0.244294
 H        -4.170890        -3.828656        -2.183580
 H        -3.641381        -2.410576        -3.299200
 H        -2.448397        -3.486058        -2.592505
