19
Iteration:   294
 C         1.504485         0.176460        -0.012284
 C         0.075528        -0.005154        -0.093702
 C        -1.141223        -0.043475         0.005679
 C        -2.583471        -0.117601         0.180724
 O        -3.242794         1.278525        -0.057688
 C        -3.226843        -1.069845        -0.902890
 O        -4.529475        -1.525209        -0.666506
 C        -3.398303        -2.475770        -0.743636
 C        -3.231846        -3.421267        -1.897780
 H         2.030095        -0.164923        -0.866810
 H         1.815042         1.197226         0.214566
 H         1.844991        -0.237427         0.832902
 H        -2.718883        -0.479924         1.199990
 H        -3.042955         1.800911         0.774792
 H        -3.016731        -0.648006        -1.852350
 H        -3.115351        -3.031988         0.163627
 H        -3.837913        -4.296133        -1.704479
 H        -3.525688        -2.958290        -2.867199
 H        -2.173906        -3.627045        -2.050454
