19
Iteration:  3135charge 0 multiplicity 1
 C         1.471202        -0.089857        -0.393746
 C         0.060667        -0.031818         0.056637
 C        -1.162879        -0.160590         0.092824
 C        -2.600390        -0.247090         0.310888
 O        -3.264631         1.012552         0.831429
 C        -3.369678        -0.828944        -0.760619
 O        -4.267936        -1.801405        -0.506854
 C        -3.097953        -2.222622        -1.242386
 C        -3.525467        -2.712883        -2.609992
 H         2.032843         0.108152         0.424127
 H         1.733206        -1.041250        -0.805936
 H         1.799116         0.758676        -1.139710
 H        -2.817877        -1.165637         1.028669
 H        -2.674040         1.239516         1.583316
 H        -3.706534        -0.086770        -1.550273
 H        -2.323162        -2.802224        -0.644003
 H        -4.121879        -3.593515        -2.421224
 H        -4.101740        -2.011653        -3.188719
 H        -2.710926        -3.143403        -3.189955
