19
Iteration:   381charge 0 multiplicity 1
 C         1.442953         0.030904        -0.009653
 C        -0.063771        -0.041979        -0.238694
 C        -1.271123         0.015211         0.220678
 C        -2.768211         0.074305         0.267852
 O        -3.192764         1.371725        -0.035430
 C        -3.190906        -0.981727        -0.830526
 O        -4.424383        -1.766302        -0.615911
 C        -3.075112        -2.406176        -0.846432
 C        -3.268134        -3.413301        -2.046187
 H         1.852840        -0.962029         0.017394
 H         1.976828         0.340473        -0.947947
 H         1.642929         0.428646         1.000347
 H        -3.129768        -0.168629         1.284212
 H        -2.288540         1.733803        -0.029628
 H        -3.112443        -0.543294        -1.799126
 H        -2.615353        -2.876452         0.108226
 H        -3.897891        -4.134629        -1.427275
 H        -3.995491        -2.907367        -2.718297
 H        -2.341316        -3.795627        -2.572485
