19
Iteration:  1571charge 0 multiplicity 1
 C         1.536696         0.151865        -0.349376
 C         0.104649         0.002019        -0.098644
 C        -1.054729        -0.084781         0.033550
 C        -2.517265        -0.313135         0.220842
 O        -3.213174         0.917159         0.683126
 C        -3.266752        -0.898171        -0.925755
 O        -4.524596        -1.432438        -0.802682
 C        -3.422393        -2.338939        -0.814747
 C        -3.338129        -3.151308        -2.094206
 H         2.108106         0.528194         0.574207
 H         1.908868        -0.663697        -0.925111
 H         1.515826         1.084587        -1.021928
 H        -2.632892        -0.786046         1.231259
 H        -3.435394         1.414281        -0.121613
 H        -2.939069        -0.444276        -1.855746
 H        -3.227393        -2.911440         0.157464
 H        -4.065218        -3.949655        -1.953709
 H        -3.613090        -2.593500        -2.975704
 H        -2.429995        -3.723778        -2.136206
