19
Iteration:  2995
 C         1.428615         0.240237        -0.407450
 C         0.034133        -0.253086        -0.111048
 C        -1.144096        -0.332466         0.240830
 C        -2.594543        -0.368272         0.445231
 O        -3.151460         0.950540         0.768458
 C        -3.254007        -0.791237        -0.826239
 O        -4.388186        -1.614974        -0.602071
 C        -3.245689        -2.249678        -1.171566
 C        -3.448806        -2.821160        -2.514910
 H         2.216992        -0.634705        -0.466372
 H         1.501499         0.933675        -1.243252
 H         1.771406         0.858644         0.394788
 H        -2.949535        -1.021533         1.223004
 H        -2.520581         1.639767         1.045669
 H        -3.355026        -0.085125        -1.713602
 H        -2.934999        -3.025541        -0.532088
 H        -4.107646        -3.665936        -2.374760
 H        -3.904239        -2.085017        -3.198767
 H        -2.497735        -3.268639        -2.925380
