19
Iteration:  3827
 C         1.324218        -0.072914        -0.628622
 C        -0.094137        -0.137985        -0.206954
 C        -1.155100        -0.200378         0.357988
 C        -2.598474        -0.303212         0.577099
 O        -3.223837         0.811750         1.072787
 C        -3.117407        -0.817101        -0.743854
 O        -4.428442        -1.599557        -0.672762
 C        -3.241438        -2.275270        -1.131058
 C        -3.207870        -2.593555        -2.699285
 H         1.740937         1.037323        -0.794361
 H         1.786520        -0.689271         0.146112
 H         1.429840        -0.525838        -1.575251
 H        -2.705518        -0.986092         1.426422
 H        -3.265227         1.539170         0.428497
 H        -3.215657        -0.014288        -1.584609
 H        -2.816026        -3.095762        -0.432834
 H        -4.093512        -3.064972        -3.216280
 H        -3.204548        -1.629789        -3.372144
 H        -2.247771        -3.054814        -2.981363
