19
Iteration:  5000
 C         1.674258         0.254919        -0.005627
 C         0.240840        -0.024979        -0.121090
 C        -0.984274        -0.286726        -0.026448
 C        -2.441984        -0.486154         0.322850
 O        -3.043670         0.435165         1.170627
 C        -3.340253        -0.774485        -0.873126
 O        -4.536876        -1.698571        -0.518537
 C        -3.466517        -2.145237        -1.376605
 C        -3.799246        -2.408451        -2.882671
 H         1.953051         0.846799         0.905031
 H         2.249811        -0.709293         0.079158
 H         1.928633         0.822080        -0.886626
 H        -2.420936        -1.449469         1.007017
 H        -2.755438         1.362234         1.060310
 H        -3.912231         0.134365        -1.309783
 H        -2.764882        -2.845689        -0.978803
 H        -3.973054        -3.443303        -3.125819
 H        -4.686568        -1.793786        -3.273836
 H        -3.026644        -2.166120        -3.618158
