19
Iteration:  1550
 C         1.619328         0.239283        -0.461004
 C         0.209842        -0.034089         0.032313
 C        -1.053728        -0.071863         0.084570
 C        -2.506962        -0.270013         0.320346
 O        -3.288755         0.902445         0.594009
 C        -3.130241        -0.959311        -0.921300
 O        -4.592706        -1.407808        -0.768593
 C        -3.484183        -2.336175        -0.876623
 C        -3.398309        -3.208120        -2.111692
 H         2.233764         0.196055         0.517950
 H         1.791862        -0.562862        -1.119367
 H         1.736362         1.304741        -0.869029
 H        -2.707511        -0.857212         1.317042
 H        -3.742632         1.282030        -0.228749
 H        -3.026868        -0.430839        -1.850177
 H        -3.293941        -2.888848         0.059589
 H        -4.126439        -4.010636        -2.199146
 H        -3.509969        -2.460172        -2.845965
 H        -2.430143        -3.681574        -2.067114
