19
Iteration:  3722charge 0 multiplicity 1
 C         1.362150         0.153435        -0.439202
 C        -0.008795        -0.111673        -0.110327
 C        -1.184530        -0.282701         0.142727
 C        -2.653268        -0.418095         0.517308
 O        -2.985969         0.839936         1.019641
 C        -3.278823        -0.784677        -0.775460
 O        -4.520188        -1.612559        -0.698780
 C        -3.281659        -2.218694        -1.206012
 C        -3.308555        -2.744699        -2.614963
 H         1.869826         0.504511         0.394192
 H         1.900859        -0.808868        -0.682715
 H         1.658126         0.713938        -1.430650
 H        -2.726570        -1.210705         1.326746
 H        -2.240554         1.453970         0.913195
 H        -3.207792        -0.105974        -1.610435
 H        -2.744493        -2.799628        -0.445894
 H        -3.619500        -3.763036        -2.709751
 H        -4.134371        -2.126439        -3.030686
 H        -2.528780        -2.503427        -3.289263
