19
Iteration:  2330
 C         1.458973         0.031346        -0.465112
 C         0.117558         0.076373         0.007976
 C        -1.147898        -0.031037         0.154840
 C        -2.601137        -0.215552         0.360820
 O        -3.278136         0.998311         0.666099
 C        -3.095000        -0.932372        -0.870778
 O        -4.460146        -1.601006        -0.559067
 C        -3.404617        -2.434144        -1.016665
 C        -3.345234        -3.014094        -2.433270
 H         1.479249         0.336643        -1.540155
 H         2.011918         0.847987         0.144701
 H         1.948824        -0.979388        -0.241366
 H        -2.838008        -0.785529         1.217691
 H        -2.553449         1.602512         0.839293
 H        -2.988334        -0.411767        -1.823382
 H        -3.072143        -3.043333        -0.177883
 H        -3.863066        -4.023906        -2.462618
 H        -3.975325        -2.387091        -3.051001
 H        -2.243610        -3.160026        -2.742455
