19
Iteration:  3836charge 0 multiplicity 1
 C         1.326709        -0.130997        -0.600446
 C        -0.074506        -0.062078        -0.233217
 C        -1.168594        -0.137890         0.337794
 C        -2.565001        -0.396957         0.639517
 O        -3.227555         0.829153         1.087726
 C        -3.177686        -0.820329        -0.773472
 O        -4.455905        -1.628369        -0.685767
 C        -3.242266        -2.174932        -1.230456
 C        -3.191119        -2.608603        -2.658160
 H         1.698437         1.011577        -0.786680
 H         2.079520        -0.568825         0.106351
 H         1.343176        -0.673497        -1.520600
 H        -2.668901        -1.216105         1.419820
 H        -3.095556         1.328855         0.269872
 H        -3.003052        -0.029609        -1.562214
 H        -2.815458        -2.927288        -0.493509
 H        -4.097362        -3.236878        -2.853866
 H        -3.213005        -1.644142        -3.103744
 H        -2.296958        -3.165115        -2.940562
