19
Iteration:  4727
 C         1.461091         0.024959        -0.487038
 C        -0.018345        -0.075234        -0.240323
 C        -1.152477        -0.204130         0.233899
 C        -2.526357        -0.525447         0.543040
 O        -3.215156         0.504311         1.289496
 C        -3.159924        -0.758861        -0.816821
 O        -4.473474        -1.516289        -0.731517
 C        -3.363045        -2.177299        -1.216433
 C        -3.382833        -2.391039        -2.781599
 H         1.821153        -1.036259        -0.844040
 H         1.547381         0.891466        -1.232490
 H         2.171526         0.342386         0.244477
 H        -2.463990        -1.606125         1.156305
 H        -2.562058         1.240442         1.325479
 H        -3.148390         0.191735        -1.456311
 H        -2.968144        -3.072922        -0.651178
 H        -4.143184        -3.139994        -3.112357
 H        -3.357896        -1.452216        -3.438278
 H        -2.294507        -2.780279        -2.992005
