19
Iteration:  1668
 C         1.493420         0.092586        -0.375758
 C         0.110141        -0.112982         0.092663
 C        -1.153898        -0.156499         0.014148
 C        -2.550983        -0.223611         0.273275
 O        -3.229146         1.080460         0.366100
 C        -3.294312        -0.892623        -0.897095
 O        -4.494298        -1.580870        -0.390664
 C        -3.363324        -2.330243        -0.920781
 C        -3.255792        -3.019418        -2.322133
 H         1.757157         1.183159        -0.349366
 H         2.204376        -0.602158         0.018520
 H         1.450213         0.007172        -1.471264
 H        -2.885859        -0.860264         1.168966
 H        -3.125356         1.272005         1.320908
 H        -3.297784        -0.386266        -1.859622
 H        -2.899622        -3.096599        -0.115299
 H        -3.676007        -4.029778        -2.403253
 H        -3.668104        -2.326118        -3.056417
 H        -2.219542        -3.319270        -2.508955
