19
Iteration:  2923
 C         1.463588         0.208450        -0.485370
 C         0.120868         0.115274         0.015559
 C        -1.030125        -0.185553         0.280042
 C        -2.489631        -0.440327         0.481543
 O        -3.112203         0.808098         0.819557
 C        -3.240818        -0.936562        -0.762250
 O        -4.580001        -1.428292        -0.753367
 C        -3.530384        -2.370990        -1.117498
 C        -3.356975        -2.905296        -2.543900
 H         1.646736        -0.457997        -1.259886
 H         1.761997         1.282870        -0.704108
 H         2.294452         0.022101         0.377140
 H        -2.582962        -1.222418         1.259268
 H        -2.716972         1.410388         0.158548
 H        -3.306150        -0.271534        -1.583003
 H        -3.301026        -3.242984        -0.387974
 H        -4.164677        -3.632345        -2.595370
 H        -3.442285        -2.171107        -3.377022
 H        -2.464869        -3.496428        -2.629295
