19
Iteration:  2570
 C         1.524227        -0.067397        -0.390794
 C         0.103235         0.110309         0.023604
 C        -1.131844        -0.076871         0.027181
 C        -2.651451        -0.237900         0.324048
 O        -3.259278         1.022242         0.688671
 C        -3.311409        -0.870378        -0.778770
 O        -4.464108        -1.670537        -0.560190
 C        -3.178218        -2.304541        -1.043648
 C        -3.357833        -2.939578        -2.502124
 H         2.126219        -0.563869         0.376733
 H         1.571318        -0.635420        -1.323103
 H         1.886345         0.948553        -0.516023
 H        -2.680352        -0.966818         1.211734
 H        -2.882532         1.180433         1.574466
 H        -3.596095        -0.188011        -1.648501
 H        -2.678945        -3.107701        -0.365473
 H        -3.968681        -3.853128        -2.459325
 H        -3.827774        -2.252715        -3.190725
 H        -2.447459        -3.427732        -2.904223
