19
Iteration:  3042charge 0 multiplicity 1
 C         1.505385         0.046315        -0.312345
 C         0.066059         0.051114        -0.043025
 C        -1.132054        -0.112540         0.007806
 C        -2.582858        -0.337529         0.369226
 O        -3.031224         0.909992         0.740590
 C        -3.372900        -0.895589        -0.747949
 O        -4.573057        -1.727815        -0.562973
 C        -3.359183        -2.336078        -1.089535
 C        -3.369897        -2.725061        -2.587070
 H         1.897401        -0.867616         0.142667
 H         1.635279         0.070859        -1.417681
 H         2.072493         0.890210        -0.072089
 H        -2.583988        -0.868610         1.361992
 H        -2.575164         1.169244         1.562420
 H        -3.476019        -0.170767        -1.516377
 H        -2.652507        -2.849687        -0.490500
 H        -3.457869        -3.854628        -2.761132
 H        -4.068201        -2.079459        -3.224653
 H        -2.294421        -2.532372        -2.865617
