19
Iteration:  3859charge 0 multiplicity 1
 C         1.382561        -0.146916        -0.625982
 C        -0.021392         0.012451        -0.110044
 C        -1.169302        -0.148746         0.218989
 C        -2.595611        -0.318958         0.560675
 O        -3.221840         0.716680         1.138403
 C        -3.298188        -0.757842        -0.703961
 O        -4.470244        -1.606058        -0.739015
 C        -3.177130        -2.120051        -1.204567
 C        -3.209306        -2.711995        -2.694042
 H         1.882783         0.864962        -1.112930
 H         2.019109        -0.451780         0.252499
 H         1.240921        -0.992066        -1.235682
 H        -2.433898        -1.028172         1.420300
 H        -2.912408         1.467877         0.584762
 H        -3.335848         0.181138        -1.380912
 H        -2.862928        -2.939740        -0.462459
 H        -3.917525        -3.568083        -2.706715
 H        -3.451000        -1.831451        -3.329392
 H        -2.210263        -3.057569        -2.971292
