19
Iteration:  3322charge 0 multiplicity 1
 C         1.446098         0.030675        -0.430211
 C         0.040148        -0.109518        -0.153489
 C        -1.134471        -0.155073         0.103974
 C        -2.624423        -0.326209         0.432173
 O        -3.242611         0.795999         0.954461
 C        -3.244138        -0.798661        -0.848122
 O        -4.419375        -1.587636        -0.566117
 C        -3.254325        -2.237425        -1.090262
 C        -3.375725        -2.750541        -2.616790
 H         1.485429         0.745243        -1.215977
 H         2.150409         0.370705         0.380089
 H         2.082477        -0.907291        -0.917400
 H        -2.685251        -1.095179         1.224901
 H        -2.646124         1.449299         1.371179
 H        -3.401991        -0.240788        -1.798384
 H        -2.841932        -2.962005        -0.424928
 H        -3.890472        -3.670670        -2.769778
 H        -3.706686        -1.865808        -3.195585
 H        -2.307959        -2.886500        -2.898771
