19
Iteration:   352
 C         1.445201         0.024312        -0.063187
 C        -0.010224         0.097237         0.053897
 C        -1.244899        -0.047102         0.084583
 C        -2.686824         0.004789         0.116228
 O        -3.192829         1.252009        -0.006494
 C        -3.215517        -0.929041        -1.021843
 O        -4.400176        -1.663917        -0.519264
 C        -3.290824        -2.448335        -0.819102
 C        -3.244826        -3.378137        -1.951568
 H         2.020703        -0.885326        -0.392695
 H         1.664337         0.855183        -0.765673
 H         1.839104         0.114837         0.964385
 H        -2.950777        -0.384863         1.128975
 H        -2.395922         1.722964         0.193412
 H        -3.391653        -0.605802        -2.097122
 H        -2.821255        -2.794355         0.068830
 H        -3.639380        -4.400956        -1.775800
 H        -3.759283        -3.005155        -2.840628
 H        -2.218523        -3.780448        -2.155217
