19
Iteration:  3945charge 0 multiplicity 1
 C         1.455960        -0.004390        -0.406469
 C         0.031550        -0.017396        -0.206255
 C        -1.062281        -0.339709         0.173898
 C        -2.540200        -0.404828         0.496185
 O        -3.244658         0.859996         1.061569
 C        -3.331652        -0.812254        -0.801922
 O        -4.504354        -1.603547        -0.596090
 C        -3.264322        -2.223638        -1.221868
 C        -3.336352        -2.634162        -2.738214
 H         1.691010         0.417455        -1.440802
 H         1.889916         0.692159         0.358942
 H         2.081750        -0.856597        -0.321894
 H        -2.550794        -1.291227         1.232170
 H        -2.469198         1.431184         1.270322
 H        -3.404536         0.094913        -1.491015
 H        -2.769481        -2.938474        -0.468020
 H        -3.506051        -3.718625        -2.931295
 H        -4.151360        -2.205639        -3.291775
 H        -2.378089        -2.383444        -3.171220
