19
Iteration:  2759charge 0 multiplicity 1
 C         1.463215         0.348752        -0.265709
 C         0.086629        -0.069665        -0.216637
 C        -1.041179        -0.302019         0.214898
 C        -2.439278        -0.316414         0.388615
 O        -3.200249         0.880004         0.729424
 C        -3.083440        -1.012579        -0.828669
 O        -4.536686        -1.503285        -0.608692
 C        -3.456456        -2.370834        -1.106200
 C        -3.546067        -2.887276        -2.507906
 H         1.648016         1.384514        -0.347950
 H         1.764984         0.061222         0.798664
 H         2.158328        -0.277719        -0.977243
 H        -2.481179        -0.889304         1.320441
 H        -2.743339         1.651433         0.331390
 H        -2.850334        -0.402229        -1.675077
 H        -3.150886        -3.109170        -0.260532
 H        -4.197911        -3.673536        -2.728832
 H        -3.677106        -2.030377        -3.202797
 H        -2.595151        -3.312872        -2.604661
