19
Iteration:  3094charge 0 multiplicity 1
 C         1.458557        -0.047370        -0.259102
 C         0.076972        -0.149725        -0.276253
 C        -1.099550        -0.003032         0.076600
 C        -2.546433        -0.322387         0.379495
 O        -3.275099         0.897661         0.812423
 C        -3.363397        -0.808147        -0.788072
 O        -4.396374        -1.737799        -0.410230
 C        -3.237164        -2.222917        -1.225614
 C        -3.389239        -2.751719        -2.617595
 H         1.708053        -0.373238         0.852033
 H         2.074856        -0.609113        -1.020582
 H         1.735706         0.954683        -0.446473
 H        -2.428028        -0.901660         1.229392
 H        -2.559371         1.473430         1.165872
 H        -3.560319        -0.008948        -1.553145
 H        -2.731064        -2.879017        -0.561781
 H        -3.783764        -3.722723        -2.610284
 H        -4.148365        -2.063037        -3.036054
 H        -2.474300        -2.657482        -3.198745
