19
Iteration:   643charge 0 multiplicity 1
 C         1.404682         0.043112        -0.273663
 C         0.012939        -0.054792         0.096013
 C        -1.171403         0.040052         0.243394
 C        -2.632163        -0.080253         0.238326
 O        -3.281205         1.144655         0.091949
 C        -3.138067        -0.957340        -1.015077
 O        -4.465162        -1.447320        -0.794564
 C        -3.341508        -2.492424        -0.760078
 C        -3.192341        -3.382616        -1.892544
 H         1.535280         1.095580        -0.555016
 H         2.123857        -0.061177         0.612233
 H         1.780197        -0.443293        -1.211297
 H        -3.056496        -0.620534         1.164177
 H        -2.721633         1.751308         0.598193
 H        -2.772973        -0.403681        -1.894094
 H        -3.165926        -2.838501         0.335550
 H        -3.857861        -4.267766        -2.080402
 H        -3.151828        -2.844006        -2.852481
 H        -2.195539        -3.787537        -1.809543
