19
Iteration:  1490charge 0 multiplicity 1
 C         1.443906         0.295780        -0.359301
 C         0.033261         0.179281        -0.179202
 C        -1.084746        -0.181717         0.294979
 C        -2.511173        -0.273803         0.390058
 O        -3.128464         0.969486         0.524676
 C        -2.959702        -1.057448        -0.850873
 O        -4.449781        -1.407373        -0.885073
 C        -3.382551        -2.457270        -0.846681
 C        -3.601819        -3.197491        -2.109655
 H         1.838946        -0.564640         0.118883
 H         1.657194         0.074363        -1.481012
 H         2.006590         1.164764        -0.143175
 H        -2.809676        -0.647182         1.417218
 H        -3.647603         1.018906        -0.344489
 H        -2.518404        -0.592615        -1.796359
 H        -3.609190        -2.976662         0.128429
 H        -4.536732        -3.762826        -2.056306
 H        -3.710811        -2.453910        -2.948764
 H        -2.762759        -3.816442        -2.479593
