19
Iteration:  4243
 C         1.446113         0.325030        -0.466132
 C         0.104461        -0.140252         0.037316
 C        -1.040038        -0.365419         0.351766
 C        -2.500034        -0.489020         0.439615
 O        -3.083633         0.734507         1.019543
 C        -3.208078        -0.944920        -0.814392
 O        -4.517224        -1.471810        -0.672671
 C        -3.470858        -2.322616        -1.261223
 C        -3.468334        -2.525613        -2.786172
 H         2.281267         0.102742         0.197408
 H         1.640482        -0.187739        -1.411683
 H         1.473596         1.365502        -0.715322
 H        -2.712901        -1.327579         1.172737
 H        -2.482152         1.027409         1.728232
 H        -3.194282        -0.296075        -1.654635
 H        -3.377916        -3.239799        -0.592579
 H        -4.347505        -3.012365        -3.150453
 H        -3.380543        -1.646535        -3.406073
 H        -2.752446        -3.328033        -2.987352
