19
Iteration:  1051
 C         1.375791        -0.184761        -0.360483
 C        -0.028487        -0.007141        -0.147231
 C        -1.194743         0.027374         0.258926
 C        -2.709702        -0.034369         0.379315
 O        -3.363706         1.215082         0.379460
 C        -3.152983        -0.941047        -0.856303
 O        -4.409964        -1.553400        -0.828591
 C        -3.209365        -2.418862        -0.844622
 C        -3.081827        -3.204734        -2.019779
 H         2.035529        -0.075370         0.439339
 H         1.542995        -1.178954        -0.836203
 H         1.523100         0.598144        -1.056509
 H        -2.910397        -0.600308         1.319552
 H        -2.733672         1.660545        -0.291719
 H        -2.959540        -0.429050        -1.839799
 H        -2.982093        -2.928184         0.097920
 H        -3.763605        -4.059675        -1.902310
 H        -3.335715        -2.561814        -2.875561
 H        -2.139932        -3.717537        -2.071457
