19
Iteration:  3375
 C         1.483342         0.075078        -0.492640
 C         0.084041         0.089737        -0.039315
 C        -1.117862        -0.110607         0.194019
 C        -2.516181        -0.466000         0.469782
 O        -3.288586         0.807875         0.911962
 C        -3.065173        -0.971989        -0.812306
 O        -4.430285        -1.473389        -0.622156
 C        -3.395941        -2.318492        -1.168887
 C        -3.490935        -2.759596        -2.620104
 H         1.711161         0.234867        -1.578734
 H         2.140175         0.765773         0.044859
 H         1.813934        -0.886046        -0.142360
 H        -2.505135        -1.148164         1.428918
 H        -2.642124         1.378298         1.382664
 H        -3.243053        -0.351560        -1.701209
 H        -3.000082        -3.043454        -0.461526
 H        -4.189819        -3.611207        -2.722920
 H        -3.974689        -1.984056        -3.376211
 H        -2.496280        -3.047710        -3.142138
