19
Iteration:  3115charge 0 multiplicity 1
 C         1.510792        -0.040855        -0.279143
 C         0.022848        -0.181265        -0.165607
 C        -1.158610        -0.090227         0.082567
 C        -2.580012        -0.228731         0.419943
 O        -3.277684         0.920698         0.828822
 C        -3.291438        -0.756242        -0.871529
 O        -4.334017        -1.810341        -0.446117
 C        -3.155918        -2.178875        -1.228701
 C        -3.501688        -2.750832        -2.600106
 H         2.007609        -0.068270         0.662450
 H         1.890489        -0.769698        -1.007319
 H         1.792817         0.818739        -0.870761
 H        -2.558228        -1.120749         1.151194
 H        -2.838761         1.592020         1.362921
 H        -3.756677        -0.001806        -1.575064
 H        -2.367031        -2.700470        -0.685382
 H        -3.976930        -3.654172        -2.472148
 H        -4.113110        -2.066070        -3.173357
 H        -2.554794        -2.963475        -3.072850
