19
Iteration:    42
 C         1.417158         0.181612        -0.058026
 C        -0.008555         0.139052        -0.098823
 C        -1.154791        -0.015818         0.083890
 C        -2.578547        -0.017130         0.169335
 O        -3.200896         1.344584         0.055275
 C        -3.040805        -1.020544        -0.880126
 O        -4.406055        -1.510743        -0.861542
 C        -3.457217        -2.574337        -0.681950
 C        -3.383983        -3.674472        -1.847054
 H         1.642140         0.257007         1.080648
 H         1.826332        -0.780326        -0.643360
 H         1.991447         1.063444        -0.333349
 H        -2.864842        -0.364188         1.198842
 H        -2.531499         1.969109        -0.259328
 H        -2.634745        -0.836640        -1.854693
 H        -3.250992        -3.042445         0.255026
 H        -4.125205        -4.461694        -1.550385
 H        -3.610823        -3.206780        -2.798389
 H        -2.363681        -4.023571        -1.748601
