19
Iteration:   121
 C         1.468704         0.290593        -0.095719
 C         0.058458         0.014366        -0.018801
 C        -1.133536        -0.019930         0.093836
 C        -2.535783        -0.119776         0.205997
 O        -3.234194         1.243188         0.112114
 C        -3.077937        -1.043639        -0.930334
 O        -4.444626        -1.389389        -0.932040
 C        -3.481771        -2.513229        -0.726628
 C        -3.372756        -3.649008        -1.747701
 H         1.725266         1.216867         0.454999
 H         2.080076        -0.437842         0.479630
 H         1.807042         0.347772        -1.171363
 H        -2.861035        -0.486973         1.154413
 H        -2.947673         1.618253        -0.745045
 H        -2.687476        -0.765356        -1.924263
 H        -3.493575        -2.879454         0.226022
 H        -4.139356        -4.397056        -1.658118
 H        -3.465854        -3.159803        -2.718663
 H        -2.372846        -4.096428        -1.647391
