19
Iteration:  1192
 C         1.430293        -0.043305        -0.206435
 C         0.057296        -0.117269        -0.117795
 C        -1.156843        -0.057134         0.080285
 C        -2.640248        -0.147584         0.196435
 O        -3.176059         1.184575         0.250069
 C        -3.387476        -0.847017        -0.890923
 O        -4.469235        -1.681835        -0.560034
 C        -3.195064        -2.299812        -0.852422
 C        -3.215375        -3.143763        -2.114477
 H         1.526906         1.010042        -0.460153
 H         1.995255        -0.173383         0.851691
 H         1.845533        -0.585388        -1.083455
 H        -2.852652        -0.591556         1.197108
 H        -3.556889         1.435460         1.166561
 H        -3.280757        -0.351908        -1.884842
 H        -2.846473        -2.796064         0.025386
 H        -3.475939        -4.179751        -1.987392
 H        -3.683163        -2.673483        -2.965437
 H        -2.168584        -3.146084        -2.329832
