19
Iteration:   510
 C         1.322178        -0.144414        -0.119174
 C        -0.177008        -0.160692        -0.229941
 C        -1.311279         0.053280         0.106884
 C        -2.767090        -0.056353         0.223484
 O        -3.284394         1.364697         0.155480
 C        -3.187198        -0.879204        -0.957353
 O        -4.344738        -1.618229        -0.629017
 C        -3.132489        -2.406576        -0.781224
 C        -3.001840        -3.320622        -1.933697
 H         1.457686         0.037875         0.952203
 H         1.701413        -1.119484        -0.438396
 H         1.935628         0.526357        -0.806789
 H        -3.094328        -0.473203         1.223664
 H        -2.479448         1.802752        -0.213297
 H        -3.080747        -0.353756        -1.877013
 H        -2.523241        -2.811697         0.091524
 H        -3.305274        -4.256126        -1.530533
 H        -3.630754        -2.920096        -2.719362
 H        -1.978929        -3.270863        -2.109648
