19
Iteration:  3112
 C         1.518962        -0.044279        -0.265833
 C         0.013620        -0.197851        -0.194714
 C        -1.174522        -0.072716         0.099052
 C        -2.563765        -0.205035         0.400150
 O        -3.269076         0.901743         0.822228
 C        -3.299627        -0.786250        -0.832085
 O        -4.347088        -1.784366        -0.445933
 C        -3.152096        -2.183767        -1.222073
 C        -3.503248        -2.725693        -2.612779
 H         1.981058        -0.082765         0.637001
 H         1.888115        -0.731209        -0.983148
 H         1.863001         0.941057        -0.849364
 H        -2.578898        -1.218711         1.053235
 H        -2.841924         1.616362         1.324045
 H        -3.783653        -0.062195        -1.523840
 H        -2.307487        -2.739602        -0.655623
 H        -3.885295        -3.768255        -2.445747
 H        -4.129706        -2.130574        -3.258235
 H        -2.529749        -3.005764        -3.047204
