19
Iteration:   940
 C         1.408418         0.170203        -0.116591
 C         0.000044        -0.051359        -0.098945
 C        -1.185007        -0.024572         0.100129
 C        -2.568718        -0.175783         0.187442
 O        -3.148185         1.193711         0.364010
 C        -3.190933        -0.970729        -0.896623
 O        -4.507844        -1.502361        -0.775100
 C        -3.332417        -2.443281        -0.832423
 C        -3.255469        -3.336989        -2.014839
 H         1.861268        -0.735156         0.250251
 H         1.907145         0.166596        -1.176556
 H         1.811328         1.016991         0.419539
 H        -2.853681        -0.740823         1.153356
 H        -3.158739         1.658605        -0.517696
 H        -2.921514        -0.482955        -1.862699
 H        -2.971204        -2.948103         0.110726
 H        -3.961198        -4.283186        -1.894588
 H        -3.647826        -2.858767        -2.957153
 H        -2.193379        -3.734493        -2.172546
