19
Iteration:  3024
 C         1.476814         0.101140        -0.376733
 C         0.075084        -0.039964        -0.050221
 C        -1.117838        -0.247239         0.138653
 C        -2.495233        -0.405515         0.383544
 O        -3.114909         1.000186         0.764146
 C        -3.361105        -0.820330        -0.807858
 O        -4.524785        -1.694644        -0.506962
 C        -3.363655        -2.271845        -1.198735
 C        -3.329400        -2.798487        -2.584383
 H         2.049652        -0.778171        -0.121296
 H         1.745348         0.435966        -1.385841
 H         1.927130         1.060158         0.191703
 H        -2.806789        -1.108403         1.218366
 H        -2.626343         1.495368         1.455987
 H        -3.655784        -0.127508        -1.615455
 H        -3.031796        -3.117043        -0.459917
 H        -3.768211        -3.799195        -2.481081
 H        -3.969506        -2.237503        -3.217809
 H        -2.355041        -2.814745        -3.022331
