19
Iteration:  1218charge 0 multiplicity 1
 C         1.484246         0.051617        -0.193300
 C         0.134208        -0.113902         0.012919
 C        -1.118122        -0.133474         0.038472
 C        -2.651947        -0.126148         0.149748
 O        -3.183855         1.290430         0.336236
 C        -3.299358        -0.938129        -0.864670
 O        -4.513999        -1.682532        -0.484958
 C        -3.242001        -2.374204        -0.904438
 C        -3.298959        -3.160114        -2.209192
 H         1.614817         0.956250        -0.856454
 H         2.105705         0.187676         0.701509
 H         1.748367        -0.763567        -0.847505
 H        -2.760390        -0.474379         1.173922
 H        -4.114663         1.404640        -0.026974
 H        -3.339302        -0.345745        -1.788588
 H        -2.661228        -2.867874        -0.050748
 H        -3.727336        -4.169282        -2.141776
 H        -3.699146        -2.706560        -3.106624
 H        -2.205422        -3.292453        -2.310491
