19
Iteration:  4799
 C         1.289394         0.273540        -0.564487
 C         0.039780        -0.116652         0.041487
 C        -1.076623        -0.533610         0.304859
 C        -2.550713        -0.573460         0.588359
 O        -2.907647         0.532534         1.341394
 C        -3.241581        -0.833333        -0.819661
 O        -4.588891        -1.279457        -0.907927
 C        -3.415700        -2.210220        -1.315806
 C        -3.341070        -2.561313        -2.777122
 H         2.157468        -0.354856        -0.481292
 H         0.844820         0.516768        -1.515491
 H         1.604541         1.322875        -0.308059
 H        -2.894541        -1.400725         1.161813
 H        -2.311238         1.273387         1.161897
 H        -2.869259        -0.124146        -1.651270
 H        -3.154751        -2.976198        -0.523921
 H        -4.054733        -3.258581        -3.218075
 H        -3.666182        -1.625455        -3.214927
 H        -2.260883        -2.663766        -3.090802
