19
Iteration:  1006
 C         1.421576        -0.015785        -0.375357
 C        -0.011923         0.002186         0.022720
 C        -1.220464        -0.012415         0.212467
 C        -2.685535        -0.173699         0.299129
 O        -3.138046         1.290852         0.304253
 C        -3.187100        -0.943534        -0.891983
 O        -4.508888        -1.553999        -0.814671
 C        -3.313285        -2.387383        -0.829972
 C        -3.096652        -3.296530        -2.029962
 H         1.974292        -0.506577         0.369079
 H         1.537392        -0.810876        -1.169798
 H         1.944923         0.894195        -0.597520
 H        -2.977381        -0.635638         1.309839
 H        -4.061764         1.157261         0.695843
 H        -2.999734        -0.400208        -1.841748
 H        -3.256008        -2.813808         0.173827
 H        -3.524688        -4.317424        -2.056145
 H        -3.224238        -2.713483        -2.960698
 H        -2.050784        -3.580782        -1.933458
