19
Iteration:  3084charge 0 multiplicity 1
 C         1.519752        -0.043678        -0.228628
 C         0.030619        -0.070664        -0.283297
 C        -1.162747        -0.048963        -0.014845
 C        -2.500060        -0.305007         0.469257
 O        -3.236225         0.916535         0.808716
 C        -3.294080        -0.832842        -0.844159
 O        -4.453421        -1.759219        -0.444251
 C        -3.299483        -2.274262        -1.133205
 C        -3.394023        -2.720738        -2.615062
 H         2.016012        -0.494881         0.810128
 H         1.927225        -0.611372        -1.137928
 H         1.861598         0.946271        -0.258759
 H        -2.543980        -1.128160         1.107955
 H        -2.701268         1.612935         1.246138
 H        -3.644318        -0.044371        -1.516831
 H        -2.607930        -2.797282        -0.523908
 H        -3.631204        -3.763687        -2.833293
 H        -4.152182        -2.040479        -3.115869
 H        -2.404849        -2.534612        -3.080671
