19
Iteration:  2058
 C         1.389816         0.225958        -0.368191
 C         0.014988        -0.078516        -0.189978
 C        -1.150653        -0.144517         0.114826
 C        -2.573443        -0.268662         0.395600
 O        -3.155913         0.990781         0.742797
 C        -3.134154        -0.921730        -0.918902
 O        -4.438384        -1.419383        -0.804892
 C        -3.310207        -2.340407        -0.983153
 C        -3.421293        -3.252851        -2.175391
 H         1.916284        -0.078499         0.510558
 H         1.865470        -0.285622        -1.256682
 H         1.372851         1.319084        -0.455932
 H        -2.698964        -0.715286         1.296160
 H        -2.566215         1.650297         0.398000
 H        -2.683806        -0.509543        -1.825277
 H        -3.176884        -2.928761         0.001207
 H        -4.367268        -3.789525        -2.161346
 H        -3.516958        -2.455416        -2.950992
 H        -2.526939        -3.861055        -2.340745
