19
Iteration:  1173
 C         1.472451        -0.057541        -0.231857
 C        -0.043165        -0.075412        -0.182108
 C        -1.261588        -0.090377         0.029762
 C        -2.677645        -0.104834         0.301048
 O        -3.240531         1.216625         0.307643
 C        -3.217381        -0.886034        -0.897378
 O        -4.474770        -1.623837        -0.557689
 C        -3.231235        -2.346598        -0.889626
 C        -3.094275        -3.184754        -2.131291
 H         1.954509         0.911957        -0.137275
 H         1.643808        -0.534979         0.734125
 H         1.696404        -0.624341        -1.089493
 H        -3.015990        -0.556586         1.241906
 H        -2.660041         1.717452         0.954613
 H        -3.316499        -0.317147        -1.856352
 H        -2.829762        -2.746393         0.089541
 H        -3.567092        -4.155424        -1.956728
 H        -3.858289        -2.819566        -2.779693
 H        -2.082950        -3.287954        -2.476776
