19
Iteration:  2420
 C         1.349484         0.004437        -0.463621
 C        -0.034571        -0.205402        -0.325995
 C        -1.183924        -0.080718         0.184739
 C        -2.629620        -0.275397         0.454942
 O        -3.200844         1.045684         0.818180
 C        -3.259292        -0.856714        -0.814784
 O        -4.480096        -1.617031        -0.744051
 C        -3.256720        -2.308434        -0.977835
 C        -3.111229        -2.907398        -2.289953
 H         1.735736        -0.709309        -1.210362
 H         1.524166         1.096349        -0.871439
 H         1.898323        -0.027492         0.599647
 H        -2.693477        -0.985616         1.265611
 H        -2.824887         1.782376         0.342965
 H        -3.292094        -0.319675        -1.787302
 H        -2.924944        -2.863857        -0.046211
 H        -3.845817        -3.790211        -2.336473
 H        -3.304241        -2.229764        -3.190372
 H        -1.983815        -3.141809        -2.434671
