19
Iteration:  3126charge 0 multiplicity 1
 C         1.469214        -0.069591        -0.358343
 C         0.084403        -0.104666        -0.058434
 C        -1.137272        -0.130755         0.058585
 C        -2.589272        -0.275465         0.388885
 O        -3.311425         0.982486         0.840108
 C        -3.330453        -0.751543        -0.863568
 O        -4.265632        -1.839653        -0.477525
 C        -3.179798        -2.172123        -1.241773
 C        -3.490989        -2.766552        -2.566365
 H         2.033426         0.026906         0.556692
 H         1.834709        -1.019073        -0.760461
 H         1.656797         0.863803        -0.829072
 H        -2.809166        -0.926751         1.301960
 H        -2.590660         1.261295         1.447570
 H        -3.569745         0.080920        -1.595216
 H        -2.433746        -2.720401        -0.671541
 H        -4.144851        -3.537212        -2.507776
 H        -4.059686        -1.984744        -3.066045
 H        -2.701600        -2.973866        -3.255623
