19
Iteration:   826
 C         1.595046         0.337265         0.085456
 C         0.124775         0.153093        -0.006993
 C        -1.074185        -0.005863         0.002430
 C        -2.505437        -0.226187         0.218634
 O        -3.211004         1.119054         0.139051
 C        -3.142260        -1.067026        -0.909983
 O        -4.461434        -1.525738        -0.662775
 C        -3.327549        -2.502244        -0.899491
 C        -3.656288        -3.417418        -2.096225
 H         2.095272        -0.433126        -0.628651
 H         1.762985         1.375338        -0.020259
 H         1.723943         0.059504         1.207790
 H        -2.817018        -0.764825         1.216260
 H        -2.711394         1.781102        -0.472385
 H        -2.969458        -0.611246        -1.880836
 H        -3.210082        -3.128089        -0.029539
 H        -4.474632        -4.110398        -1.698611
 H        -4.166703        -2.844434        -2.905135
 H        -2.746852        -3.949799        -2.430725
