19
Iteration:  2661
 C         1.480215         0.217098        -0.227008
 C         0.066182        -0.019828        -0.087781
 C        -1.077711        -0.222214         0.115301
 C        -2.520694        -0.337387         0.344820
 O        -3.110968         0.997108         0.729501
 C        -3.325173        -0.888563        -0.864161
 O        -4.492228        -1.635630        -0.572394
 C        -3.252192        -2.336386        -1.118920
 C        -3.537640        -2.968033        -2.505037
 H         1.834176         0.748191         0.543875
 H         2.024719        -0.741977        -0.124284
 H         1.674436         0.664643        -1.244129
 H        -2.817558        -1.048032         1.180100
 H        -2.374726         1.614726         0.550224
 H        -3.443121        -0.083391        -1.560670
 H        -2.588128        -2.775842        -0.336372
 H        -3.892164        -4.000473        -2.576049
 H        -4.262516        -2.333913        -3.077041
 H        -2.609968        -3.052151        -3.027278
