19
Iteration:  3901charge 0 multiplicity 1
 C         1.404431        -0.074533        -0.497650
 C        -0.022515        -0.207047        -0.140704
 C        -1.171369        -0.030990         0.177101
 C        -2.562265        -0.265677         0.439423
 O        -3.183015         0.683527         1.177717
 C        -3.308207        -0.734429        -0.886396
 O        -4.465383        -1.584272        -0.665471
 C        -3.259174        -2.201023        -1.162702
 C        -3.200337        -2.688614        -2.634077
 H         1.369770         0.756767        -1.366071
 H         2.061706         0.233771         0.374938
 H         1.685818        -1.048740        -0.896868
 H        -2.831594        -1.234835         1.048546
 H        -2.687990         1.520493         1.248369
 H        -3.391825        -0.071882        -1.784983
 H        -2.622709        -2.849906        -0.478978
 H        -3.530906        -3.731395        -2.854672
 H        -4.035628        -2.182560        -3.058487
 H        -2.320945        -2.443940        -3.224440
