19
Iteration:  3031charge 0 multiplicity 1
 C         1.499026         0.099397        -0.361504
 C         0.063476         0.009079        -0.031196
 C        -1.121662        -0.175389         0.082812
 C        -2.543203        -0.354090         0.398739
 O        -3.069942         0.967726         0.731761
 C        -3.386076        -0.870531        -0.765373
 O        -4.510149        -1.735113        -0.537610
 C        -3.395307        -2.268701        -1.187244
 C        -3.337624        -2.745227        -2.535838
 H         2.050055        -0.795842        -0.058481
 H         1.680294         0.071252        -1.459477
 H         1.893687         0.833860         0.227637
 H        -2.649326        -1.273654         1.082470
 H        -2.535016         1.208041         1.526504
 H        -3.495274        -0.192049        -1.575918
 H        -3.102285        -3.046110        -0.527079
 H        -3.691456        -3.844986        -2.522169
 H        -4.028160        -2.256551        -3.323530
 H        -2.296431        -2.643892        -2.952535
