19
Iteration:  1885
 C         1.418105        -0.172235        -0.448681
 C         0.053603        -0.017986         0.018671
 C        -1.131162         0.115078         0.065213
 C        -2.604579        -0.123227         0.268075
 O        -3.298579         1.144077         0.537323
 C        -3.363734        -0.863462        -0.777542
 O        -4.442650        -1.733110        -0.449555
 C        -3.223783        -2.408687        -1.000325
 C        -3.203566        -3.057546        -2.355282
 H         1.514082        -0.968111        -1.164832
 H         1.853190         0.861129        -0.638380
 H         2.077858        -0.455846         0.400895
 H        -2.766125        -0.830091         1.169288
 H        -2.609291         1.859675         0.628276
 H        -3.427606        -0.169213        -1.618589
 H        -2.743280        -3.018340        -0.364033
 H        -3.784946        -4.009418        -2.593629
 H        -3.583636        -2.345379        -3.093321
 H        -2.127431        -3.042868        -2.642151
