19
Iteration:    74
 C         1.506928         0.235689        -0.126883
 C         0.083162         0.133074         0.109389
 C        -1.098913        -0.016318         0.131162
 C        -2.577349        -0.138598         0.047125
 O        -3.226896         1.022763         0.011579
 C        -3.172455        -0.982314        -1.025176
 O        -4.520647        -1.450425        -0.843520
 C        -3.470697        -2.388864        -0.656810
 C        -3.320177        -3.495689        -1.713592
 H         1.997876         0.480330         0.866811
 H         2.019500        -0.817284        -0.181133
 H         1.725893         0.867000        -0.971226
 H        -2.809477        -0.577366         1.074720
 H        -2.678067         1.749818        -0.399649
 H        -2.839168        -0.700367        -2.019484
 H        -3.216751        -2.725344         0.369728
 H        -4.102162        -4.314176        -1.658015
 H        -3.293839        -3.154732        -2.758805
 H        -2.367675        -3.998873        -1.498092
