19
Iteration:  4395
 C         1.410873        -0.096581        -0.408938
 C        -0.065731        -0.067697        -0.246991
 C        -1.187114        -0.142697         0.107624
 C        -2.517815        -0.444705         0.547143
 O        -3.179227         0.651116         1.171899
 C        -3.305945        -0.805265        -0.754948
 O        -4.462360        -1.557008        -0.562163
 C        -3.162324        -2.203590        -1.283366
 C        -3.355426        -2.467007        -2.820425
 H         1.693139         0.942252        -0.132836
 H         1.898555        -0.795702         0.258544
 H         1.650645        -0.104833        -1.493042
 H        -2.411488        -1.324286         1.113114
 H        -2.472856         1.242146         1.501981
 H        -3.315154        -0.037129        -1.443432
 H        -2.646174        -2.936068        -0.727734
 H        -3.866200        -3.376556        -3.017736
 H        -3.806364        -1.746931        -3.435088
 H        -2.373332        -2.532790        -3.318154
