19
Iteration:  4835
 C         1.302157         0.346197        -0.487608
 C        -0.021610        -0.114388        -0.103227
 C        -1.029511        -0.588169         0.419378
 C        -2.471425        -0.632410         0.631484
 O        -2.981258         0.508044         1.214132
 C        -3.125372        -0.871676        -0.769045
 O        -4.562177        -1.247532        -0.821014
 C        -3.509678        -2.151398        -1.379044
 C        -3.420135        -2.520629        -2.799087
 H         2.240989        -0.242565        -0.158804
 H         1.480125         0.147331        -1.603757
 H         1.317686         1.386704        -0.212957
 H        -2.633717        -1.408328         1.298753
 H        -2.617213         1.242663         0.700049
 H        -2.724436        -0.005650        -1.464505
 H        -3.136537        -2.945014        -0.688451
 H        -3.799716        -3.548610        -2.987257
 H        -3.913360        -1.662012        -3.353645
 H        -2.323650        -2.642213        -3.227095
