19
Iteration:   574
 C         1.342249        -0.161652        -0.272000
 C        -0.027857        -0.006226         0.069545
 C        -1.226007         0.149975         0.119309
 C        -2.603676        -0.040435         0.194018
 O        -3.299510         1.279764         0.097694
 C        -3.239372        -1.003510        -0.898321
 O        -4.504251        -1.548108        -0.743739
 C        -3.238807        -2.417369        -0.776390
 C        -3.004075        -3.337048        -1.903108
 H         1.977226         0.551845         0.300063
 H         1.713494        -1.069744         0.125478
 H         1.510776        -0.050864        -1.403269
 H        -2.734267        -0.582275         1.184169
 H        -3.087132         1.707587         0.891210
 H        -3.132003        -0.646641        -1.909430
 H        -3.105652        -2.805803         0.203363
 H        -3.596783        -4.277784        -1.867213
 H        -2.936617        -2.952496        -2.980786
 H        -1.899673        -3.648503        -1.903054
