19
Iteration:  1681charge 0 multiplicity 1
 C         1.452957         0.069846        -0.416487
 C         0.161172        -0.165486         0.081665
 C        -1.127149        -0.079674         0.125421
 C        -2.590459        -0.191994         0.247609
 O        -3.234573         1.068541         0.294817
 C        -3.284075        -0.948506        -0.796820
 O        -4.467538        -1.628013        -0.397234
 C        -3.352989        -2.369060        -1.005612
 C        -3.302658        -2.942480        -2.311642
 H         1.686732         1.181088        -0.204718
 H         2.257353        -0.322414         0.122636
 H         1.665002        -0.283016        -1.458378
 H        -2.666543        -0.784969         1.260283
 H        -3.265245         1.456124         1.181841
 H        -3.517795        -0.284592        -1.597697
 H        -2.841103        -3.010157        -0.098845
 H        -3.796179        -3.902622        -2.319140
 H        -3.642243        -2.425089        -3.153002
 H        -2.240085        -3.028896        -2.465724
