19
Iteration:  2256
 C         1.528262         0.289221        -0.224800
 C         0.075390        -0.020956        -0.000086
 C        -1.155172        -0.212051        -0.027821
 C        -2.476469        -0.251242         0.229735
 O        -3.041649         1.029237         0.509350
 C        -3.324214        -0.901047        -0.857452
 O        -4.523666        -1.658575        -0.418094
 C        -3.399167        -2.389679        -1.013195
 C        -3.443442        -3.052170        -2.469877
 H         1.470828         1.202408        -0.680749
 H         2.137143         0.329291         0.712664
 H         2.010362        -0.466692        -0.914162
 H        -2.716908        -0.841715         1.228585
 H        -2.685544         1.313705         1.396683
 H        -3.646034        -0.294928        -1.730438
 H        -2.971890        -2.911282        -0.225099
 H        -4.208587        -3.831147        -2.244797
 H        -3.665918        -2.379972        -3.267087
 H        -2.448352        -3.480874        -2.655165
