19
Iteration:    20
 C         1.502291         0.151046        -0.025530
 C         0.046273         0.069475        -0.198994
 C        -1.170638         0.127665         0.156525
 C        -2.651442        -0.104428         0.255393
 O        -3.197630         1.390963         0.015123
 C        -3.132248        -1.098961        -0.902471
 O        -4.492782        -1.624214        -0.930483
 C        -3.304905        -2.518709        -0.661867
 C        -3.386215        -3.559353        -1.796110
 H         1.746985        -0.166635         1.062330
 H         2.107170        -0.475411        -0.827342
 H         1.880079         1.191055        -0.028427
 H        -2.902861        -0.249951         1.308609
 H        -2.444171         1.764466        -0.501154
 H        -2.728011        -0.764052        -1.836907
 H        -3.205615        -2.886937         0.325445
 H        -4.168049        -4.283582        -1.446267
 H        -3.756117        -3.011520        -2.655757
 H        -2.435530        -4.054949        -1.987119
