19
Iteration:  2375
 C         1.414213        -0.021733        -0.537596
 C         0.027485         0.008087        -0.056525
 C        -1.217594        -0.093670         0.171063
 C        -2.603001        -0.263176         0.450316
 O        -3.295907         0.982426         0.770790
 C        -3.171379        -0.767542        -0.868721
 O        -4.467451        -1.588471        -0.679966
 C        -3.185874        -2.257225        -1.076513
 C        -3.275062        -3.099980        -2.338470
 H         1.428747        -0.420354        -1.545933
 H         1.959154         1.017853        -0.475685
 H         1.919029        -0.737772         0.231604
 H        -2.720309        -1.070221         1.104872
 H        -2.681999         1.703089         0.708302
 H        -3.169861        -0.006905        -1.666952
 H        -2.616424        -2.699610        -0.242071
 H        -3.958790        -3.975116        -2.066820
 H        -3.741303        -2.580776        -3.211458
 H        -2.187322        -3.469768        -2.484189
