19
Iteration:  1045charge 0 multiplicity 1
 C         1.395938        -0.179508        -0.371482
 C        -0.048541         0.012595        -0.122404
 C        -1.205879         0.031830         0.219026
 C        -2.702505        -0.075022         0.410524
 O        -3.321038         1.256082         0.391163
 C        -3.150470        -0.936911        -0.847741
 O        -4.409174        -1.553414        -0.836231
 C        -3.209891        -2.416582        -0.838054
 C        -3.102538        -3.256266        -2.028469
 H         2.053757        -0.096356         0.595763
 H         1.383411        -1.131387        -0.882747
 H         1.663912         0.660569        -1.117008
 H        -3.187747        -0.598412         1.255672
 H        -2.987302         1.656073        -0.389085
 H        -2.952127        -0.392741        -1.768774
 H        -3.064886        -3.071101         0.048211
 H        -3.805977        -4.132287        -1.973624
 H        -3.242004        -2.553709        -2.874498
 H        -2.005257        -3.612291        -2.113092
