19
Iteration:  3069
 C         1.516204        -0.038805        -0.253671
 C         0.074931         0.039959        -0.180717
 C        -1.137955        -0.139675        -0.077888
 C        -2.606899        -0.266411         0.322040
 O        -3.185815         0.916006         0.821419
 C        -3.341063        -0.910701        -0.704443
 O        -4.459359        -1.740795        -0.520611
 C        -3.312982        -2.324348        -1.125652
 C        -3.386746        -2.641480        -2.568036
 H         1.764685        -0.650863         0.535217
 H         1.891389        -0.409481        -1.182719
 H         2.069049         0.973576        -0.194321
 H        -2.478239        -0.850325         1.263016
 H        -2.470510         1.295825         1.361292
 H        -3.380181        -0.263362        -1.633869
 H        -2.839700        -3.145462        -0.484685
 H        -3.484898        -3.693422        -2.595247
 H        -4.128973        -2.127269        -3.121352
 H        -2.403495        -2.444002        -2.973603
