19
Iteration:  4046charge 0 multiplicity 1
 C         1.455133         0.223657        -0.153912
 C         0.094732        -0.138424        -0.058508
 C        -1.067272        -0.282327         0.200428
 C        -2.475240        -0.427414         0.408663
 O        -3.009197         0.869476         0.795814
 C        -3.242500        -0.921054        -0.820421
 O        -4.410716        -1.782654        -0.476333
 C        -3.375311        -2.214801        -1.317659
 C        -3.720691        -2.550659        -2.790080
 H         1.932761        -0.020390        -1.188487
 H         1.459857         1.282109        -0.438854
 H         2.059287         0.099138         0.677239
 H        -2.765289        -1.239282         1.129121
 H        -2.659186         1.088868         1.675389
 H        -3.322775        -0.054319        -1.549823
 H        -2.739360        -2.971701        -0.720285
 H        -4.578375        -3.147927        -2.864118
 H        -3.853888        -1.599491        -3.365190
 H        -2.941373        -2.996487        -3.355425
