19
Iteration:   771charge 0 multiplicity 1
 C         1.577375         0.386987         0.079581
 C         0.147238         0.125702         0.087619
 C        -1.041415        -0.154746        -0.037233
 C        -2.499817        -0.151139         0.138789
 O        -3.058720         1.089255         0.191329
 C        -3.297367        -1.025478        -0.969686
 O        -4.584243        -1.560890        -0.704304
 C        -3.438458        -2.461370        -0.822779
 C        -3.490758        -3.396764        -2.024904
 H         1.714587         0.440802        -1.052780
 H         1.850925         1.366981         0.351321
 H         2.131558        -0.318587         0.780867
 H        -2.874620        -0.707712         1.059224
 H        -3.122966         1.489969        -0.731289
 H        -3.161729        -0.572441        -1.946925
 H        -3.207519        -2.949312         0.101355
 H        -4.327945        -4.178624        -1.950292
 H        -3.755800        -2.785166        -2.949746
 H        -2.545463        -3.995437        -2.160357
