19
Iteration:  2374
 C         1.418971        -0.023429        -0.541198
 C         0.036700         0.016624        -0.048411
 C        -1.213095        -0.085099         0.176003
 C        -2.612481        -0.267746         0.455839
 O        -3.291847         0.975927         0.763420
 C        -3.172210        -0.769110        -0.871018
 O        -4.475441        -1.592204        -0.680707
 C        -3.183613        -2.242316        -1.069631
 C        -3.283863        -3.106674        -2.343550
 H         1.449121        -0.417570        -1.559348
 H         1.967020         0.997989        -0.463100
 H         1.919664        -0.734266         0.206026
 H        -2.726718        -1.082302         1.089196
 H        -2.682053         1.707382         0.704313
 H        -3.198161        -0.016659        -1.665060
 H        -2.614924        -2.726306        -0.204982
 H        -3.936335        -3.969759        -2.058827
 H        -3.699808        -2.590045        -3.220843
 H        -2.203839        -3.454023        -2.519498
