19
Iteration:   506charge 0 multiplicity 1
 C         1.282765        -0.156076        -0.112905
 C        -0.171427        -0.152396        -0.253093
 C        -1.312571         0.042067         0.089610
 C        -2.739334        -0.051360         0.230775
 O        -3.278080         1.388313         0.161882
 C        -3.174843        -0.920213        -0.922013
 O        -4.323333        -1.632988        -0.628258
 C        -3.145602        -2.407440        -0.781720
 C        -3.024876        -3.301970        -1.931319
 H         1.488704        -0.021326         0.975275
 H         1.721430        -1.122097        -0.322474
 H         1.748285         0.658423        -0.719263
 H        -3.178481        -0.297408         1.195689
 H        -2.521903         1.860064        -0.273693
 H        -2.979182        -0.423195        -1.924620
 H        -2.531865        -2.777497        -0.026354
 H        -3.331989        -4.293756        -1.508051
 H        -3.597235        -2.986511        -2.854244
 H        -1.884403        -3.184589        -2.207003
