19
Iteration:  3622
 C         1.587346         0.142757        -0.235039
 C         0.153564         0.135480        -0.079449
 C        -1.008567        -0.119741         0.083607
 C        -2.450592        -0.367556         0.429308
 O        -3.180929         0.808675         1.019847
 C        -3.197595        -0.911089        -0.894121
 O        -4.478508        -1.661679        -0.594249
 C        -3.371161        -2.341496        -1.221578
 C        -3.737619        -2.800904        -2.684339
 H         1.985644        -0.424266         0.579698
 H         1.780951        -0.333011        -1.221484
 H         2.334688         1.155950        -0.125692
 H        -2.385726        -1.136611         1.294078
 H        -3.066023         1.444355         0.290282
 H        -3.540882        -0.199748        -1.743025
 H        -2.857010        -3.154941        -0.567930
 H        -4.650463        -3.460017        -2.748931
 H        -3.951145        -1.854696        -3.321809
 H        -2.908901        -3.129277        -3.284507
