19
Iteration:  2449
 C         1.434032         0.017288        -0.518040
 C         0.032979        -0.013990        -0.138814
 C        -1.202074        -0.292216         0.085787
 C        -2.668053        -0.311124         0.508333
 O        -3.151972         1.110994         0.765593
 C        -3.341836        -0.920599        -0.743858
 O        -4.583544        -1.572195        -0.656785
 C        -3.299439        -2.322427        -1.032389
 C        -2.996247        -2.880852        -2.390980
 H         1.558668        -0.931928        -0.959595
 H         1.606194         0.722535        -1.319373
 H         2.047014         0.171053         0.327314
 H        -2.758868        -0.992229         1.407053
 H        -3.181001         1.594746        -0.120576
 H        -3.341697        -0.310565        -1.654521
 H        -3.074449        -2.861422        -0.036037
 H        -3.442399        -3.839480        -2.533393
 H        -3.343451        -2.275149        -3.152771
 H        -1.930416        -3.091320        -2.207503
