19
Iteration:  2439
 C         1.402439         0.010133        -0.527767
 C        -0.037956        -0.070379        -0.173848
 C        -1.183903        -0.242136         0.084430
 C        -2.644439        -0.236797         0.489311
 O        -3.157775         1.013776         0.762327
 C        -3.338646        -0.854569        -0.700795
 O        -4.567274        -1.584170        -0.697154
 C        -3.330150        -2.298010        -1.000932
 C        -2.990050        -2.938816        -2.348345
 H         1.775359        -0.886036        -0.964407
 H         1.737746         0.881908        -1.123713
 H         1.975471         0.106162         0.414500
 H        -2.772175        -0.707206         1.480240
 H        -3.023259         1.631859         0.017338
 H        -3.157361        -0.166346        -1.558749
 H        -2.828402        -2.932163        -0.162676
 H        -3.606615        -3.805018        -2.527546
 H        -3.208943        -2.223477        -3.115489
 H        -1.940472        -3.092491        -2.636068
