19
Iteration:  3790
 C         1.304005         0.057471        -0.665138
 C         0.018066        -0.276850        -0.075312
 C        -1.160480        -0.231841         0.302604
 C        -2.576876        -0.369476         0.636785
 O        -3.222832         0.822410         0.930444
 C        -3.166321        -0.826637        -0.663525
 O        -4.464016        -1.604725        -0.720016
 C        -3.261104        -2.231244        -1.105510
 C        -3.240611        -2.557230        -2.706800
 H         1.751612         1.031425        -0.309186
 H         2.071060        -0.701687        -0.350624
 H         1.320282        -0.055843        -1.790047
 H        -2.874058        -1.133550         1.430998
 H        -2.787000         1.579590         0.506710
 H        -3.235749        -0.005435        -1.325562
 H        -2.768970        -2.875923        -0.405386
 H        -3.958694        -3.319352        -2.915457
 H        -3.381043        -1.687764        -3.218129
 H        -2.261743        -2.981246        -2.926500
