19
Iteration:  3421charge 0 multiplicity 1
 C         1.523772         0.254895        -0.410385
 C         0.113331         0.018494        -0.032912
 C        -1.045388        -0.270014         0.250928
 C        -2.529234        -0.459120         0.428419
 O        -3.138501         0.763783         0.888550
 C        -3.229924        -0.810813        -0.817322
 O        -4.518966        -1.494273        -0.721491
 C        -3.372990        -2.309201        -1.231809
 C        -3.571858        -2.827935        -2.544890
 H         1.581348        -0.003063        -1.373733
 H         1.901475         1.300110        -0.429889
 H         2.303247        -0.310430         0.133103
 H        -2.602106        -1.210328         1.293834
 H        -2.576751         1.218579         1.523481
 H        -3.002255        -0.140955        -1.622167
 H        -3.060412        -3.126179        -0.674230
 H        -4.353273        -3.558948        -2.433426
 H        -3.840842        -2.142449        -3.335698
 H        -2.595898        -3.381425        -2.729919
