19
Iteration:  1522
 C         1.530315         0.254347        -0.408207
 C         0.074890         0.077319        -0.095763
 C        -1.085563        -0.040442         0.216597
 C        -2.499785        -0.228005         0.390588
 O        -3.194228         0.979920         0.567847
 C        -3.012278        -1.085273        -0.831019
 O        -4.482294        -1.291837        -0.727920
 C        -3.479275        -2.447560        -0.933543
 C        -3.493507        -3.334226        -2.236581
 H         2.006767        -0.166764         0.418409
 H         1.615155        -0.346155        -1.375913
 H         1.876050         1.243491        -0.513115
 H        -2.804248        -0.822759         1.368311
 H        -3.646700         1.143012        -0.296502
 H        -2.681636        -0.636500        -1.834916
 H        -3.549389        -3.084924        -0.038324
 H        -4.326028        -4.087655        -2.258918
 H        -3.693507        -2.612412        -3.080920
 H        -2.492198        -3.860408        -2.325988
