19
Iteration:  2531charge 0 multiplicity 1
 C         1.377117        -0.019355        -0.454970
 C        -0.064847        -0.144108        -0.175502
 C        -1.142744        -0.138976         0.340382
 C        -2.614866        -0.255358         0.425546
 O        -3.305374         1.076903         0.688160
 C        -3.225935        -0.867061        -0.874636
 O        -4.328392        -1.606314        -0.546226
 C        -3.192545        -2.283218        -1.124496
 C        -3.310838        -2.985140        -2.460887
 H         2.057357        -0.686662         0.118534
 H         1.628759        -0.004008        -1.551705
 H         1.750734         0.989152        -0.044051
 H        -2.958461        -0.818283         1.247953
 H        -2.523709         1.673998         0.793969
 H        -3.108948        -0.124510        -1.657566
 H        -2.617248        -2.757458        -0.366301
 H        -3.837325        -3.931144        -2.179764
 H        -3.925826        -2.240016        -3.069143
 H        -2.343848        -3.197971        -2.939850
