19
Iteration:  3057charge 0 multiplicity 1
 C         1.502292        -0.027372        -0.287330
 C         0.054530         0.096929        -0.101405
 C        -1.125941        -0.138933        -0.091095
 C        -2.472084        -0.345918         0.407012
 O        -3.141522         0.989250         0.799575
 C        -3.410746        -0.938826        -0.803658
 O        -4.567962        -1.720334        -0.522209
 C        -3.280376        -2.355946        -1.101556
 C        -3.310328        -2.688269        -2.573515
 H         1.950056        -0.714956         0.337324
 H         1.680895        -0.364445        -1.275967
 H         1.990055         0.966242         0.071879
 H        -2.506549        -1.250040         1.103993
 H        -2.588298         1.375489         1.518342
 H        -3.527002        -0.205615        -1.642785
 H        -2.957095        -3.102929        -0.288787
 H        -3.673873        -3.663788        -2.898413
 H        -4.134831        -2.069346        -2.828358
 H        -2.482967        -2.380106        -3.190145
