19
Iteration:  4400
 C         1.386092        -0.084071        -0.425991
 C        -0.020186        -0.112362        -0.225624
 C        -1.211678        -0.065924         0.096892
 C        -2.501883        -0.486668         0.558862
 O        -3.171903         0.645113         1.123821
 C        -3.295831        -0.812872        -0.714137
 O        -4.469047        -1.599233        -0.580275
 C        -3.153572        -2.131875        -1.259458
 C        -3.391033        -2.477204        -2.840917
 H         1.764800         0.952892        -0.153131
 H         1.761873        -0.775097         0.368375
 H         1.746832        -0.175658        -1.448427
 H        -2.493377        -1.438541         1.278042
 H        -2.470183         1.242716         1.432665
 H        -3.268604         0.145899        -1.390820
 H        -2.579740        -2.964471        -0.616128
 H        -3.862043        -3.464826        -3.187881
 H        -3.897268        -1.501917        -3.259909
 H        -2.306696        -2.599406        -3.256709
