19
Iteration:   393
 C         1.413311        -0.044700        -0.049876
 C        -0.083429        -0.052148        -0.159622
 C        -1.244781         0.026497         0.200057
 C        -2.711356         0.033212         0.268042
 O        -3.191990         1.371840        -0.044393
 C        -3.261163        -0.938351        -0.867593
 O        -4.363805        -1.800254        -0.605199
 C        -3.103251        -2.453791        -0.821096
 C        -3.262172        -3.306448        -1.995320
 H         1.851923        -0.972851         0.299177
 H         1.895433         0.491083        -0.908131
 H         1.642395         0.732095         0.652155
 H        -3.176106        -0.303759         1.210810
 H        -2.519277         2.080144        -0.305976
 H        -3.276930        -0.430054        -1.849786
 H        -2.690491        -2.910505         0.120926
 H        -3.789229        -4.328065        -1.754091
 H        -3.835673        -2.807650        -2.801606
 H        -2.286598        -3.743925        -2.461626
