19
Iteration:  4258
 C         1.354718         0.262473        -0.490452
 C         0.059339        -0.093378        -0.018541
 C        -1.068266        -0.440277         0.252327
 C        -2.529848        -0.538943         0.660997
 O        -3.102128         0.745602         0.976040
 C        -3.157146        -0.889707        -0.732514
 O        -4.451670        -1.392277        -0.660864
 C        -3.457104        -2.315496        -1.329337
 C        -3.448343        -2.624215        -2.826122
 H         2.193926         0.285052         0.258829
 H         1.833823        -0.351291        -1.259397
 H         1.300356         1.323906        -0.727317
 H        -2.695474        -1.306882         1.359520
 H        -2.467023         1.157672         1.573087
 H        -2.957316        -0.070353        -1.463767
 H        -3.175613        -3.213074        -0.751756
 H        -4.394640        -3.045502        -3.199441
 H        -3.435858        -1.605836        -3.222060
 H        -2.492191        -3.048803        -3.069941
