19
Iteration:  1641
 C         1.491736         0.093987        -0.336955
 C         0.027837         0.044732        -0.140324
 C        -1.153661        -0.176218         0.043448
 C        -2.574018        -0.232651         0.326786
 O        -3.145462         1.099839         0.534202
 C        -3.305589        -0.882698        -0.877072
 O        -4.527048        -1.621267        -0.662204
 C        -3.284546        -2.344497        -0.944209
 C        -3.322794        -3.090279        -2.159071
 H         1.878961         0.985633         0.167701
 H         2.025438        -0.856421         0.050781
 H         1.902268         0.286335        -1.348470
 H        -2.870247        -0.867417         1.133539
 H        -2.576894         1.331659         1.316308
 H        -3.240433        -0.282266        -1.818114
 H        -3.072937        -2.966228        -0.166739
 H        -3.832838        -4.078116        -2.065202
 H        -3.782240        -2.496678        -2.996810
 H        -2.333579        -3.538362        -2.462218
