19
Iteration:  1143
 C         1.404819        -0.160580        -0.272071
 C        -0.019744        -0.007692        -0.153939
 C        -1.201196         0.035743         0.112776
 C        -2.658172        -0.068580         0.287253
 O        -3.217298         1.263412         0.448390
 C        -3.239591        -0.937321        -0.895950
 O        -4.498800        -1.679880        -0.682414
 C        -3.245899        -2.367503        -0.873319
 C        -3.073968        -3.209514        -2.093824
 H         2.024648         0.738343         0.038245
 H         1.568391        -0.960600         0.374901
 H         1.579821        -0.433089        -1.343043
 H        -2.892176        -0.365371         1.315632
 H        -3.239734         1.765776        -0.343203
 H        -3.255438        -0.352614        -1.806021
 H        -2.915594        -2.825049         0.110751
 H        -3.475270        -4.250824        -1.886087
 H        -3.665645        -2.617042        -2.853996
 H        -1.979702        -3.324336        -2.476704
