19
Iteration:  1785
 C         1.537583        -0.068939        -0.288380
 C         0.083982        -0.193508        -0.001809
 C        -1.201173        -0.111259        -0.061898
 C        -2.707482        -0.064950         0.235567
 O        -3.193605         1.280978         0.543140
 C        -3.507275        -0.863705        -0.768041
 O        -4.400834        -1.941240        -0.364550
 C        -3.148553        -2.249329        -1.088558
 C        -3.287657        -2.953358        -2.370510
 H         1.820162         0.292352        -1.296220
 H         2.066415         0.601412         0.569013
 H         2.226729        -0.961652        -0.261861
 H        -2.576762        -0.466465         1.303643
 H        -3.223568         1.830707        -0.230473
 H        -3.847204        -0.034026        -1.484340
 H        -2.400268        -2.671191        -0.491652
 H        -3.598658        -4.006601        -2.061507
 H        -4.024716        -2.643848        -3.172764
 H        -2.278606        -3.202788        -2.876432
