19
Iteration:  2157
 C         1.623415         0.272015        -0.122746
 C         0.181860         0.092063        -0.155739
 C        -1.026499        -0.069215        -0.040372
 C        -2.522682        -0.274948         0.336157
 O        -3.211658         0.941347         0.555196
 C        -3.101088        -1.018522        -0.879305
 O        -4.508915        -1.576619        -0.566714
 C        -3.429816        -2.492755        -0.898019
 C        -3.658341        -3.021631        -2.372106
 H         1.780408         0.996178         0.573318
 H         2.135790        -0.678020         0.171378
 H         1.910273         0.669473        -1.110270
 H        -2.815772        -0.895236         1.229342
 H        -3.058675         1.308471        -0.327930
 H        -3.183940        -0.507758        -1.813567
 H        -3.014726        -3.258987        -0.184165
 H        -4.106815        -4.016200        -2.395296
 H        -4.304799        -2.238833        -2.725315
 H        -2.720161        -2.943165        -2.922659
