19
Iteration:  1500
 C         1.470605         0.224045        -0.371999
 C         0.008075         0.193405        -0.184459
 C        -1.099346        -0.070157         0.269331
 C        -2.471462        -0.336529         0.460504
 O        -3.126116         1.007419         0.507757
 C        -3.020940        -1.036101        -0.780178
 O        -4.372727        -1.415651        -0.891260
 C        -3.457505        -2.454477        -0.883704
 C        -3.598779        -3.202649        -2.143489
 H         1.923143        -0.371588         0.349395
 H         1.624803        -0.008898        -1.480557
 H         1.780664         1.211568        -0.189961
 H        -2.826817        -1.079757         1.258382
 H        -3.526736         1.047770        -0.383603
 H        -2.659079        -0.644282        -1.785434
 H        -3.409175        -3.109207         0.004258
 H        -4.486264        -3.899271        -2.067464
 H        -3.844093        -2.478069        -2.957939
 H        -2.659875        -3.816841        -2.283424
