19
Iteration:  2526charge 0 multiplicity 1
 C         1.393948         0.008763        -0.458737
 C        -0.044383        -0.166518        -0.188056
 C        -1.171654        -0.164528         0.335324
 C        -2.619077        -0.268130         0.460526
 O        -3.304535         1.104069         0.690501
 C        -3.213739        -0.870385        -0.868430
 O        -4.350581        -1.592770        -0.547960
 C        -3.177574        -2.278090        -1.143404
 C        -3.310124        -2.983734        -2.455235
 H         2.009084        -0.760601         0.026971
 H         1.564137        -0.012936        -1.522985
 H         1.740600         0.929295        -0.037127
 H        -2.917606        -0.903836         1.380287
 H        -2.715281         1.873614         0.728887
 H        -3.075012        -0.170528        -1.738350
 H        -2.534399        -2.862148        -0.377674
 H        -3.761352        -3.963227        -2.311289
 H        -3.909820        -2.307287        -3.003090
 H        -2.321949        -3.215052        -2.881245
