19
Iteration:  1326
 C         1.580104         0.243542        -0.174901
 C         0.195949        -0.062539         0.051754
 C        -1.041284        -0.028552        -0.012012
 C        -2.543197        -0.236322         0.160892
 O        -3.209175         1.067151         0.442688
 C        -3.240087        -1.003760        -0.970982
 O        -4.484340        -1.540052        -0.599195
 C        -3.417883        -2.449509        -0.893382
 C        -3.523305        -3.179677        -2.131313
 H         1.581077         0.166565        -1.288438
 H         1.783678         1.358805         0.140894
 H         2.337383        -0.329874         0.329289
 H        -2.546233        -0.618474         1.178264
 H        -3.685756         1.341964        -0.393085
 H        -3.030502        -0.450732        -1.926998
 H        -3.002680        -2.968378         0.013017
 H        -4.166355        -3.986073        -1.872529
 H        -3.828340        -2.618618        -2.971175
 H        -2.576322        -3.607857        -2.345572
