19
Iteration:  2544charge 0 multiplicity 1
 C         1.374061        -0.016713        -0.431556
 C        -0.046089        -0.072372        -0.105520
 C        -1.150070        -0.067499         0.298190
 C        -2.623513        -0.204929         0.349836
 O        -3.211483         0.972948         0.664597
 C        -3.182221        -0.757200        -0.880013
 O        -4.367852        -1.692092        -0.583143
 C        -3.168375        -2.290208        -1.035284
 C        -3.372688        -2.937854        -2.427956
 H         1.907401        -0.824019         0.243894
 H         1.594166        -0.295478        -1.461529
 H         1.683616         1.007651        -0.238464
 H        -2.789099        -1.019551         1.038712
 H        -2.603423         1.597000         1.099806
 H        -3.606356        -0.166238        -1.623009
 H        -2.729862        -2.970993        -0.393580
 H        -3.937549        -3.882538        -2.390347
 H        -3.925851        -2.390593        -3.232306
 H        -2.404227        -3.268659        -2.830459
