19
Iteration:  4607
 C         1.402894        -0.002236        -0.334317
 C         0.014215        -0.205613        -0.107476
 C        -1.174459        -0.231393         0.131756
 C        -2.479472        -0.357682         0.529877
 O        -3.045957         0.788408         1.067006
 C        -3.442517        -0.895148        -0.697633
 O        -4.301279        -1.926280        -0.434816
 C        -3.248823        -2.098969        -1.432870
 C        -3.536661        -2.254217        -2.930602
 H         1.898851        -0.051221        -1.428122
 H         1.636229         0.937338         0.279028
 H         1.870140        -0.718695         0.300487
 H        -2.688382        -1.201256         1.203711
 H        -2.580290         1.560250         0.724732
 H        -3.997573         0.016758        -1.092743
 H        -2.516589        -2.943504        -1.063719
 H        -3.849446        -3.279724        -3.261456
 H        -4.172243        -1.402390        -3.388757
 H        -2.569799        -2.077267        -3.546031
