19
Iteration:  3358
 C         1.531352         0.042615        -0.454033
 C         0.121785         0.001346        -0.150477
 C        -1.059156        -0.071845         0.219311
 C        -2.479958        -0.344143         0.546965
 O        -3.328870         0.693888         0.849024
 C        -3.225098        -0.854601        -0.746199
 O        -4.475989        -1.523356        -0.633003
 C        -3.327555        -2.303319        -1.167349
 C        -3.468965        -2.751813        -2.614528
 H         1.545195         0.419460        -1.474101
 H         2.019990         0.815074         0.185296
 H         2.018619        -1.036228        -0.540745
 H        -2.605647        -1.136160         1.201645
 H        -2.808877         1.456360         1.159168
 H        -3.003916        -0.075912        -1.482219
 H        -3.111978        -3.091674        -0.410953
 H        -4.055285        -3.659286        -2.788002
 H        -3.852292        -1.981656        -3.216357
 H        -2.490850        -2.946916        -2.960214
