19
Iteration:  4228
 C         1.445270         0.284492        -0.434837
 C         0.170170        -0.096622         0.068271
 C        -0.994392        -0.268237         0.287726
 C        -2.445952        -0.577887         0.474109
 O        -3.069576         0.677483         0.964746
 C        -3.216944        -0.849643        -0.870380
 O        -4.616664        -1.560483        -0.739913
 C        -3.479165        -2.255978        -1.248505
 C        -3.545137        -2.573584        -2.682743
 H         2.145575        -0.066030         0.309260
 H         1.635844        -0.086561        -1.533911
 H         1.480337         1.520683        -0.346773
 H        -2.672928        -1.447102         1.224327
 H        -2.503431         0.946805         1.727576
 H        -2.965132         0.043825        -1.585743
 H        -2.898898        -2.899827        -0.576716
 H        -4.623691        -2.940606        -2.892892
 H        -3.224070        -1.577276        -3.226782
 H        -2.712192        -3.217373        -3.087452
