19
Iteration:  4713
 C         1.481031         0.002480        -0.533988
 C         0.083343        -0.031597        -0.150375
 C        -1.084021        -0.105615         0.276363
 C        -2.516811        -0.507451         0.515082
 O        -3.215356         0.501060         1.263516
 C        -3.284916        -0.821742        -0.748484
 O        -4.522202        -1.564215        -0.771972
 C        -3.307807        -2.192144        -1.292103
 C        -3.366105        -2.364156        -2.737488
 H         1.734043        -0.989590        -1.012772
 H         1.872984         0.713020        -1.314370
 H         1.987362        -0.002383         0.459446
 H        -2.613666        -1.450567         1.172108
 H        -2.672753         1.296758         1.264765
 H        -3.260760        -0.041660        -1.597815
 H        -2.926182        -2.932539        -0.551838
 H        -4.202674        -3.058416        -3.000929
 H        -3.817459        -1.444048        -3.074392
 H        -2.469302        -2.734583        -3.413530
