19
Iteration:  1465
 C         1.496225         0.339066        -0.392693
 C         0.068216         0.029497        -0.029550
 C        -1.066717        -0.157323         0.211637
 C        -2.523195        -0.339456         0.326352
 O        -3.146902         1.014776         0.506835
 C        -3.042778        -1.007585        -0.923467
 O        -4.414677        -1.321212        -0.752105
 C        -3.503329        -2.441305        -0.893148
 C        -3.543619        -3.268435        -2.115006
 H         2.247620        -0.461064        -0.271706
 H         1.610429         0.579442        -1.467899
 H         1.863039         1.223460         0.119542
 H        -2.882863        -0.845758         1.243955
 H        -3.904855         0.827564        -0.032824
 H        -2.711106        -0.552428        -1.875223
 H        -3.551372        -2.954884         0.002036
 H        -4.443700        -3.964130        -2.221209
 H        -3.333250        -2.727973        -3.033207
 H        -2.626831        -3.945361        -2.026722
