19
Iteration:   457
 C         1.459846        -0.158955        -0.100478
 C         0.017790        -0.033042         0.012365
 C        -1.234234         0.012704         0.048121
 C        -2.682741         0.048225         0.136218
 O        -3.259066         1.312703         0.038676
 C        -3.306462        -0.890583        -0.876661
 O        -4.561027        -1.853113        -0.514470
 C        -3.224569        -2.327012        -0.781507
 C        -2.994096        -3.189678        -2.018005
 H         1.987896        -0.653180         0.724622
 H         1.774900        -0.793611        -0.989883
 H         1.808364         0.879096        -0.182363
 H        -2.921156        -0.311523         1.157825
 H        -3.101527         1.508746        -0.908922
 H        -3.433663        -0.417749        -1.837533
 H        -2.723963        -2.924676         0.060789
 H        -3.436492        -4.126013        -1.691100
 H        -3.443760        -2.743159        -2.903306
 H        -1.936147        -3.185744        -2.145531
