19
Iteration:  1717
 C         1.505221         0.003383        -0.370301
 C        -0.019070        -0.021941        -0.124011
 C        -1.162916        -0.140059         0.260394
 C        -2.634591        -0.104794         0.419378
 O        -3.214151         1.214552         0.275071
 C        -3.235947        -0.988027        -0.675416
 O        -4.360230        -1.779077        -0.511552
 C        -3.190920        -2.445318        -0.980572
 C        -3.446936        -2.909954        -2.396637
 H         1.834050         0.993084        -0.790406
 H         1.876527        -0.255728         0.708150
 H         1.821212        -0.762435        -1.169525
 H        -3.081542        -0.599162         1.349302
 H        -2.650969         1.757341         0.885434
 H        -3.393918        -0.427578        -1.642933
 H        -2.525161        -3.035987        -0.361300
 H        -3.939131        -3.886530        -2.175599
 H        -4.168357        -2.262551        -2.960059
 H        -2.468731        -3.090794        -2.934637
