19
Iteration:  1874
 C         1.494860        -0.187729        -0.358431
 C         0.042848        -0.006590        -0.074977
 C        -1.217295         0.126599         0.016323
 C        -2.589194        -0.125502         0.385460
 O        -3.294623         1.149677         0.528656
 C        -3.308610        -0.921818        -0.782362
 O        -4.457528        -1.787621        -0.469632
 C        -3.261839        -2.350978        -0.982632
 C        -3.206511        -2.997001        -2.388721
 H         1.616335        -0.764015        -1.285168
 H         2.003742         0.757682        -0.761727
 H         2.031638        -0.699100         0.459730
 H        -2.618671        -0.632854         1.417677
 H        -2.647205         1.808624         0.290426
 H        -3.642922        -0.342296        -1.640611
 H        -2.724286        -2.720358        -0.211066
 H        -3.562576        -4.092617        -2.470342
 H        -3.823398        -2.347118        -3.015103
 H        -2.168189        -3.085119        -2.774667
