19
Iteration:   961charge 0 multiplicity 1
 C         1.455594         0.127125        -0.214872
 C         0.019635        -0.158707        -0.056442
 C        -1.197897        -0.151024         0.052989
 C        -2.642745        -0.138822         0.290882
 O        -3.328332         1.122984         0.283809
 C        -3.172834        -0.913827        -0.944677
 O        -4.435324        -1.436004        -0.727577
 C        -3.378158        -2.375064        -0.816129
 C        -3.136079        -3.276085        -1.990273
 H         2.181629        -0.482244         0.295599
 H         1.955044         0.029622        -1.231040
 H         1.617879         1.140751         0.159029
 H        -3.090977        -0.703831         1.178349
 H        -2.653560         1.872639         0.191912
 H        -2.917256        -0.510243        -1.931176
 H        -2.955689        -2.769299         0.136994
 H        -3.762016        -4.257611        -1.864024
 H        -3.503066        -2.804403        -2.922256
 H        -2.144578        -3.745103        -2.062512
