19
Iteration:  3796
 C         1.326509         0.045784        -0.652196
 C        -0.008447        -0.288843        -0.103048
 C        -1.161792        -0.238556         0.295036
 C        -2.601344        -0.394591         0.646870
 O        -3.254950         0.868241         0.968412
 C        -3.109951        -0.852593        -0.725978
 O        -4.473607        -1.598002        -0.690864
 C        -3.245367        -2.234619        -1.086734
 C        -3.238310        -2.551738        -2.686528
 H         1.740964         1.000622        -0.425006
 H         2.142375        -0.610731        -0.354522
 H         1.292171        -0.092602        -1.769961
 H        -2.790033        -1.098682         1.438409
 H        -2.909467         1.640946         0.478229
 H        -3.201244         0.011515        -1.425534
 H        -2.725051        -3.009496        -0.444980
 H        -3.964681        -3.311198        -3.097417
 H        -3.295211        -1.549819        -3.316620
 H        -2.283752        -3.019016        -3.025998
