19
Iteration:  1132
 C         1.416053        -0.212413        -0.341375
 C         0.024134         0.003044        -0.076903
 C        -1.212472         0.095783         0.118069
 C        -2.732881        -0.047224         0.311114
 O        -3.194637         1.261261         0.430972
 C        -3.254234        -0.838171        -0.880056
 O        -4.520634        -1.710334        -0.695077
 C        -3.221377        -2.359373        -0.828305
 C        -3.070707        -3.200737        -2.086389
 H         2.007925         0.676068         0.115055
 H         1.854091        -1.051318         0.123189
 H         1.897966        -0.360406        -1.347722
 H        -2.972189        -0.808692         1.108995
 H        -3.728309         1.368954        -0.424211
 H        -3.010229        -0.530571        -1.896495
 H        -2.993684        -2.920165         0.138301
 H        -3.606524        -4.222433        -2.041151
 H        -3.578117        -2.797368        -3.038419
 H        -1.923448        -3.324455        -2.383512
