19
Iteration:   417
 C         1.433437        -0.065184        -0.105580
 C        -0.054593        -0.027085         0.133997
 C        -1.260407        -0.037926         0.056042
 C        -2.728696         0.001453         0.097594
 O        -3.229776         1.299473        -0.024560
 C        -3.261521        -0.989337        -0.928569
 O        -4.439419        -1.678574        -0.371546
 C        -3.201988        -2.404339        -0.816493
 C        -3.073071        -3.247851        -2.081933
 H         1.881437        -0.985925         0.315021
 H         1.558091         0.092045        -1.195355
 H         2.011208         0.777248         0.221004
 H        -3.150210        -0.396082         1.039637
 H        -2.705415         1.956908        -0.513180
 H        -3.363959        -0.612468        -1.998836
 H        -2.725646        -2.781681         0.071939
 H        -3.653635        -4.233507        -1.889698
 H        -3.517651        -2.738947        -2.973064
 H        -1.981848        -3.642257        -2.283314
