19
Iteration:  3435charge 0 multiplicity 1
 C         1.517400         0.310737        -0.407906
 C         0.145697        -0.078269        -0.039037
 C        -1.038650        -0.344687         0.161205
 C        -2.460966        -0.416736         0.487866
 O        -3.169933         0.771281         0.892446
 C        -3.216470        -0.838631        -0.840650
 O        -4.519328        -1.463269        -0.679284
 C        -3.435517        -2.227579        -1.187091
 C        -3.537988        -2.915383        -2.634592
 H         1.853950        -0.002706        -1.389112
 H         1.524782         1.403179        -0.314432
 H         2.300032        -0.076597         0.431463
 H        -2.719949        -1.232687         1.179917
 H        -2.589744         1.258331         1.524279
 H        -3.337587        -0.007636        -1.532267
 H        -3.045810        -2.784615        -0.304955
 H        -4.368573        -3.650952        -2.572621
 H        -3.707476        -2.126578        -3.300440
 H        -2.672790        -3.472683        -2.884071
