19
Iteration:  3338
 C         1.523134         0.069117        -0.491444
 C         0.076075        -0.155791        -0.155104
 C        -1.079517        -0.070704         0.215763
 C        -2.481033        -0.381467         0.419111
 O        -3.365027         0.773159         0.911881
 C        -3.203482        -0.846635        -0.831142
 O        -4.507334        -1.592669        -0.600006
 C        -3.354416        -2.259000        -1.152671
 C        -3.355559        -2.684323        -2.550066
 H         1.867858         0.681602        -1.410382
 H         1.928689         0.480992         0.434038
 H         1.958685        -0.855033        -0.649761
 H        -2.523191        -1.164847         1.198033
 H        -2.687536         1.435947         1.181737
 H        -3.184573         0.017808        -1.476882
 H        -2.706710        -2.927919        -0.490941
 H        -4.050860        -3.598873        -2.466836
 H        -3.873344        -1.905910        -3.093906
 H        -2.393393        -2.998215        -2.937224
