19
Iteration:  3401charge 0 multiplicity 1
 C         1.438180         0.135763        -0.472666
 C         0.049473         0.132236         0.017545
 C        -1.110778        -0.157185         0.275193
 C        -2.488930        -0.431767         0.443014
 O        -3.105433         0.758096         0.892003
 C        -3.135618        -0.888166        -0.889519
 O        -4.458872        -1.486632        -0.709497
 C        -3.413320        -2.364118        -1.138131
 C        -3.532953        -2.831045        -2.594687
 H         1.560138         0.023055        -1.489449
 H         1.898526         1.111720        -0.167089
 H         2.073529        -0.734122         0.124955
 H        -2.521371        -1.215709         1.239680
 H        -2.539879         1.208250         1.558778
 H        -3.210477        -0.251888        -1.744947
 H        -2.930926        -2.935915        -0.351917
 H        -4.393719        -3.448277        -2.769512
 H        -3.923484        -1.980178        -3.043009
 H        -2.763619        -3.156036        -3.236082
