19
Iteration:   416charge 0 multiplicity 1
 C         1.426496        -0.059052        -0.101305
 C        -0.049809        -0.031865         0.125691
 C        -1.265025        -0.036564         0.061966
 C        -2.722925         0.001928         0.098563
 O        -3.229959         1.305033        -0.025370
 C        -3.258710        -0.992019        -0.926111
 O        -4.433398        -1.682743        -0.378616
 C        -3.204659        -2.400593        -0.814771
 C        -3.079403        -3.256906        -2.086056
 H         1.846918        -0.991175         0.300685
 H         1.573716         0.088127        -1.208253
 H         1.998797         0.773114         0.236743
 H        -3.133199        -0.391136         1.047803
 H        -2.695708         1.935009        -0.495193
 H        -3.363651        -0.605246        -1.982349
 H        -2.711688        -2.776757         0.093475
 H        -3.678928        -4.222851        -1.866875
 H        -3.519983        -2.719882        -2.957496
 H        -1.970820        -3.618735        -2.284072
