19
Iteration:  4028
 C         1.501102         0.295074        -0.278574
 C         0.148594        -0.207928        -0.038505
 C        -1.030194        -0.314789         0.337284
 C        -2.525190        -0.458571         0.409725
 O        -3.067039         0.877901         0.746525
 C        -3.378185        -0.871762        -0.814204
 O        -4.423113        -1.726345        -0.461465
 C        -3.343565        -2.305529        -1.323015
 C        -3.620736        -2.489162        -2.781477
 H         1.895341        -0.029560        -1.244100
 H         1.564728         1.382282        -0.176052
 H         2.052767        -0.287284         0.566004
 H        -2.738513        -1.212088         1.208146
 H        -2.468788         1.025767         1.500368
 H        -3.736835        -0.104405        -1.435880
 H        -2.716562        -3.033979        -0.909917
 H        -4.552977        -3.123150        -2.885989
 H        -3.769810        -1.580746        -3.329958
 H        -2.811481        -3.127651        -3.255783
