19
Iteration:  2548
 C         1.384920        -0.015070        -0.420429
 C        -0.025839        -0.053161        -0.085252
 C        -1.174886        -0.050536         0.264400
 C        -2.594321        -0.228000         0.355410
 O        -3.190179         0.980158         0.669870
 C        -3.214428        -0.797319        -0.906708
 O        -4.376620        -1.711565        -0.584427
 C        -3.191823        -2.256183        -1.051483
 C        -3.387061        -2.936526        -2.426697
 H         1.894952        -0.709223         0.254446
 H         1.473708        -0.397741        -1.438040
 H         1.856017         0.945012        -0.253389
 H        -2.734010        -1.098309         1.125612
 H        -2.789074         1.684741         1.212874
 H        -3.542433        -0.108446        -1.770115
 H        -2.616908        -3.019804        -0.372796
 H        -3.879796        -3.902493        -2.347985
 H        -3.864595        -2.212322        -3.064484
 H        -2.396450        -3.319112        -2.738475
