19
Iteration:  2151charge 0 multiplicity 1
 C         1.627852         0.246729        -0.143052
 C         0.194150         0.114604        -0.102237
 C        -1.011193        -0.071099        -0.047622
 C        -2.487715        -0.250865         0.278862
 O        -3.226298         0.926098         0.558768
 C        -3.166757        -1.059224        -0.816183
 O        -4.487280        -1.595899        -0.581699
 C        -3.471307        -2.449178        -0.913290
 C        -3.621641        -3.015965        -2.355713
 H         2.032974         1.050497         0.661823
 H         2.232030        -0.639503         0.032507
 H         1.769347         0.700445        -1.147759
 H        -2.811988        -0.970750         1.060795
 H        -3.276782         1.371144        -0.354179
 H        -3.042593        -0.597900        -1.852559
 H        -3.159048        -3.115660        -0.038633
 H        -4.183935        -3.961690        -2.513858
 H        -4.327755        -2.187392        -2.636114
 H        -2.680481        -2.998779        -2.927987
