19
Iteration:  3253charge 0 multiplicity 1
 C         1.460719         0.037063        -0.412329
 C        -0.010515        -0.153615        -0.148313
 C        -1.184928        -0.315983         0.133170
 C        -2.609078        -0.251790         0.478181
 O        -3.077560         0.996916         0.836225
 C        -3.388993        -0.809748        -0.753086
 O        -4.509741        -1.792042        -0.515678
 C        -3.313253        -2.243491        -1.175299
 C        -3.231236        -2.635908        -2.623725
 H         1.589624         1.268341        -0.498431
 H         2.119550        -0.483409         0.267678
 H         1.736122        -0.448877        -1.413441
 H        -2.737674        -1.015382         1.322085
 H        -2.508945         1.535965         1.410460
 H        -3.575090        -0.035169        -1.521589
 H        -2.480022        -2.782200        -0.608589
 H        -3.426274        -3.799769        -2.731343
 H        -3.895914        -2.209080        -3.456520
 H        -2.214543        -2.719612        -3.146209
