19
Iteration:   568
 C         1.360176        -0.194175        -0.258806
 C        -0.002904         0.025157         0.126092
 C        -1.194273         0.126019         0.081738
 C        -2.653151         0.004881         0.178168
 O        -3.311337         1.262216         0.103936
 C        -3.294186        -0.953314        -0.911225
 O        -4.522881        -1.557702        -0.729470
 C        -3.260243        -2.429214        -0.770336
 C        -2.943217        -3.363844        -1.919525
 H         2.058933         0.565278         0.120792
 H         1.835530        -1.231642        -0.060082
 H         1.424158         0.109892        -1.293094
 H        -2.692301        -0.654326         1.080815
 H        -2.995667         1.771867         0.899678
 H        -2.978672        -0.532716        -1.904713
 H        -2.916637        -2.742680         0.285321
 H        -3.539566        -4.277634        -1.954874
 H        -3.171576        -2.984259        -2.897499
 H        -1.947489        -3.746231        -1.878620
