19
Iteration:  3545charge 0 multiplicity 1
 C         1.564353         0.376163        -0.249277
 C         0.160707        -0.047135         0.004525
 C        -1.025798        -0.252244         0.103917
 C        -2.451307        -0.487302         0.306104
 O        -3.081482         0.773815         0.880446
 C        -3.268289        -0.905945        -0.918506
 O        -4.512785        -1.528753        -0.596753
 C        -3.469444        -2.315729        -1.122955
 C        -3.670638        -2.831338        -2.635433
 H         2.214098        -0.407375        -0.125039
 H         1.744506         0.803190        -1.232414
 H         2.030667         0.941635         0.689514
 H        -2.689334        -1.251781         1.194250
 H        -2.464548         1.467845         1.134387
 H        -3.159592        -0.171413        -1.801823
 H        -2.882903        -3.096078        -0.536608
 H        -4.421874        -3.651951        -2.833304
 H        -4.248161        -1.914278        -2.909677
 H        -2.798064        -2.973789        -3.248369
