19
Iteration:   972
 C         1.495721         0.142176        -0.260402
 C         0.029887        -0.195891        -0.046495
 C        -1.158601        -0.162575         0.145821
 C        -2.646891        -0.208037         0.212512
 O        -3.369504         1.168853         0.234065
 C        -3.172506        -0.886683        -0.906959
 O        -4.492813        -1.462637        -0.765248
 C        -3.315299        -2.354717        -0.790134
 C        -3.138080        -3.268180        -1.965831
 H         1.833932        -0.543064         0.464179
 H         1.637938        -0.126417        -1.365045
 H         1.858506         1.146991        -0.077874
 H        -2.771007        -0.769045         1.210695
 H        -2.830732         1.750556         0.776304
 H        -2.978744        -0.327948        -1.831299
 H        -2.992845        -2.800241         0.198373
 H        -3.861997        -4.175573        -1.911575
 H        -3.295190        -2.773247        -2.953736
 H        -2.054618        -3.351024        -1.970367
