19
Iteration:  1290
 C         1.553161         0.163010        -0.139564
 C         0.061339         0.063310        -0.074512
 C        -1.135700        -0.101947         0.115767
 C        -2.555217        -0.211569         0.249973
 O        -3.159049         1.151313         0.205275
 C        -3.208675        -0.971002        -0.856048
 O        -4.439214        -1.579758        -0.490526
 C        -3.310734        -2.440279        -0.942082
 C        -3.511127        -3.199472        -2.212818
 H         1.824306         0.403171        -1.126812
 H         1.988236         0.978274         0.431541
 H         2.058053        -0.783940        -0.071346
 H        -2.668144        -0.787725         1.193765
 H        -3.834660         1.340596         0.916284
 H        -3.099157        -0.525738        -1.846834
 H        -2.879950        -3.043662        -0.198652
 H        -4.266888        -4.003091        -2.252911
 H        -3.859276        -2.602687        -3.055612
 H        -2.511354        -3.618385        -2.400800
