19
Iteration:  1349
 C         1.624974         0.284808        -0.180863
 C         0.120055         0.055026        -0.096812
 C        -1.071227        -0.121650         0.056393
 C        -2.518994        -0.200474         0.199372
 O        -3.220859         0.987925         0.491576
 C        -3.172676        -0.928476        -0.956710
 O        -4.536464        -1.478453        -0.674573
 C        -3.449763        -2.412355        -0.859767
 C        -3.541622        -3.362860        -2.141231
 H         1.956387        -0.110360        -1.211325
 H         1.933518         1.380454         0.005479
 H         2.096656        -0.259599         0.665681
 H        -2.536798        -0.713243         1.195709
 H        -2.783874         1.713148         0.033563
 H        -2.891229        -0.436329        -1.944634
 H        -3.104293        -2.876590         0.146086
 H        -4.165978        -4.228073        -2.091739
 H        -3.845587        -2.664142        -2.930191
 H        -2.547036        -3.605594        -2.469194
