19
Iteration:  1657
 C         1.456004         0.126460        -0.359640
 C         0.063774        -0.052396         0.007885
 C        -1.105518        -0.209990         0.011082
 C        -2.584316        -0.193881         0.243947
 O        -3.186784         1.069478         0.457254
 C        -3.303567        -0.885299        -0.867030
 O        -4.500138        -1.556901        -0.512204
 C        -3.351964        -2.387188        -0.873404
 C        -3.265110        -3.091136        -2.297163
 H         2.029691         1.020704        -0.020973
 H         2.096218        -0.670160         0.004123
 H         1.483666        -0.058813        -1.436260
 H        -2.729367        -0.904350         1.158937
 H        -3.062417         1.489445         1.357757
 H        -3.390919        -0.400689        -1.837096
 H        -2.665841        -2.649982         0.063714
 H        -3.932585        -3.955014        -2.381549
 H        -3.644197        -2.445158        -3.107941
 H        -2.219516        -3.186838        -2.590341
