19
Iteration:  1610charge 0 multiplicity 1
 C         1.401105         0.122142        -0.286690
 C        -0.007451         0.057569        -0.331288
 C        -1.151851        -0.090098         0.074570
 C        -2.507123        -0.210269         0.366623
 O        -3.114549         1.104732         0.728093
 C        -3.262734        -0.890085        -0.865248
 O        -4.496594        -1.488599        -0.760049
 C        -3.327115        -2.422279        -1.006255
 C        -3.341741        -3.319937        -2.151697
 H         1.639625         0.606214         0.623461
 H         2.019900        -0.849373        -0.164726
 H         2.009730         0.553344        -1.069274
 H        -2.748969        -0.937534         1.152468
 H        -2.409244         1.771162         0.669786
 H        -3.262199        -0.294875        -1.841657
 H        -3.225989        -2.932608        -0.041972
 H        -4.069384        -4.172236        -2.058384
 H        -3.649216        -2.888677        -3.176640
 H        -2.276714        -3.550708        -2.465256
