19
Iteration:  4507charge 0 multiplicity 1
 C         1.450406         0.035425        -0.403517
 C         0.072335        -0.221279        -0.063477
 C        -1.119003        -0.420287         0.245468
 C        -2.569489        -0.315975         0.491051
 O        -3.150632         0.932498         1.031863
 C        -3.359662        -0.802955        -0.780531
 O        -4.307016        -1.991684        -0.517382
 C        -3.218327        -2.150433        -1.404000
 C        -3.582074        -2.295588        -2.867967
 H         1.694526         1.020312        -0.994382
 H         2.026186         0.164799         0.565555
 H         1.935583        -0.851576        -0.687649
 H        -2.722050        -0.996450         1.274957
 H        -2.503385         1.262114         1.697135
 H        -3.847501         0.076849        -1.295315
 H        -2.245344        -2.681654        -1.072398
 H        -3.878503        -3.352139        -2.940950
 H        -4.495075        -1.710195        -3.008571
 H        -2.837358        -1.841335        -3.637436
