19
Iteration:  3078charge 0 multiplicity 1
 C         1.542946        -0.043071        -0.228985
 C         0.027819        -0.022669        -0.257755
 C        -1.184650        -0.087501        -0.049823
 C        -2.506474        -0.252076         0.419989
 O        -3.215440         0.903141         0.812789
 C        -3.288230        -0.871009        -0.789860
 O        -4.457915        -1.755364        -0.486921
 C        -3.322055        -2.301990        -1.099989
 C        -3.400104        -2.672882        -2.595833
 H         2.001593        -0.563287         0.535109
 H         1.899538        -0.636823        -1.041609
 H         1.953333         1.032725        -0.148202
 H        -2.754007        -1.126011         1.207549
 H        -2.609651         1.497508         1.290656
 H        -3.590838        -0.127599        -1.520920
 H        -2.520574        -2.904404        -0.527569
 H        -3.638990        -3.786763        -2.787923
 H        -4.110039        -2.194851        -3.273576
 H        -2.403701        -2.430417        -2.992089
