19
Iteration:  2715charge 0 multiplicity 1
 C         1.431103         0.310270        -0.273637
 C         0.114158        -0.006950         0.063785
 C        -1.067418        -0.351167         0.117701
 C        -2.504020        -0.308929         0.366040
 O        -3.037697         0.936696         0.685595
 C        -3.231814        -0.919262        -0.778091
 O        -4.489927        -1.608880        -0.618488
 C        -3.397551        -2.362571        -1.106005
 C        -3.524797        -2.871021        -2.531446
 H         1.580433         1.322299        -0.072685
 H         2.111806        -0.360037         0.323482
 H         1.601807         0.194243        -1.424743
 H        -2.850551        -0.911028         1.237445
 H        -2.755840         1.586498         0.010202
 H        -3.285752        -0.269424        -1.654411
 H        -3.033922        -3.205365        -0.365197
 H        -4.081665        -3.760176        -2.357650
 H        -4.075212        -2.286385        -3.313028
 H        -2.706755        -3.328883        -3.023168
