19
Iteration:   191charge 0 multiplicity 1
 C         1.513548         0.281958        -0.149473
 C         0.116859         0.023719         0.178923
 C        -1.091563         0.046026         0.067421
 C        -2.585925        -0.203898         0.173472
 O        -3.260862         1.121801         0.055574
 C        -3.137747        -1.049600        -1.026646
 O        -4.476432        -1.405231        -0.888553
 C        -3.547815        -2.444996        -0.704854
 C        -3.322686        -3.565875        -1.762081
 H         1.695646         1.222026        -0.648050
 H         2.113990         0.450568         0.713011
 H         1.905059        -0.491150        -0.823929
 H        -2.769701        -0.596834         1.196225
 H        -2.534741         1.710150        -0.277671
 H        -2.976911        -0.648712        -2.074253
 H        -3.385646        -2.690772         0.407634
 H        -4.121942        -4.340113        -1.735787
 H        -3.190040        -3.004692        -2.688929
 H        -2.392829        -3.996959        -1.364492
