19
Iteration:  1419
 C         1.574688         0.412546        -0.284294
 C         0.195134         0.002382        -0.044496
 C        -0.993502        -0.197511         0.036178
 C        -2.576769        -0.264311         0.284680
 O        -3.132151         0.991458         0.508380
 C        -3.140960        -0.987110        -0.945703
 O        -4.563303        -1.376725        -0.867453
 C        -3.582739        -2.404914        -0.819258
 C        -3.465998        -3.312193        -2.046970
 H         2.079946        -0.537925        -0.732013
 H         1.639640         1.118088        -1.107622
 H         2.149094         0.849515         0.613076
 H        -2.878838        -0.984534         1.109521
 H        -3.551275         0.955704         1.394913
 H        -2.931524        -0.661948        -1.935742
 H        -3.175448        -2.807234         0.106831
 H        -4.402244        -3.961770        -2.065739
 H        -3.479556        -2.696110        -2.972673
 H        -2.547796        -3.968868        -2.119851
