19
Iteration:  3131
 C         1.459479        -0.088626        -0.404548
 C         0.062315        -0.057407         0.020985
 C        -1.137654        -0.151310         0.073464
 C        -2.595295        -0.264642         0.337347
 O        -3.293017         1.010392         0.837580
 C        -3.362613        -0.802151        -0.786578
 O        -4.253192        -1.813462        -0.503320
 C        -3.136807        -2.202538        -1.239160
 C        -3.505157        -2.720998        -2.583360
 H         2.132977         0.140998         0.656320
 H         1.780859        -1.095416        -0.770452
 H         1.763301         0.852965        -0.990837
 H        -2.873267        -1.045700         1.017799
 H        -2.599837         1.171622         1.501226
 H        -3.598750        -0.058221        -1.501428
 H        -2.372710        -2.746327        -0.654423
 H        -4.205130        -3.704117        -2.453624
 H        -4.104582        -1.969401        -3.163345
 H        -2.701767        -3.131906        -3.276169
