19
Iteration:  4952
 C         1.519211         0.165737        -0.112758
 C         0.120835         0.033422        -0.088307
 C        -1.063272        -0.103230         0.002066
 C        -2.445259        -0.548302         0.330794
 O        -3.058755         0.400482         1.307988
 C        -3.250592        -0.799141        -0.856931
 O        -4.382360        -1.568062        -0.605701
 C        -3.404808        -2.121419        -1.450255
 C        -3.796886        -2.481116        -2.819187
 H         1.944119         0.253355         0.900592
 H         1.890134        -0.838031        -0.392296
 H         1.833487         0.993302        -0.776390
 H        -2.307451        -1.581526         0.940075
 H        -2.636094         1.235673         1.038875
 H        -3.286607        -0.032616        -1.667186
 H        -2.969366        -3.055017        -0.910977
 H        -4.634335        -3.194396        -2.814266
 H        -3.991449        -1.663427        -3.456371
 H        -3.037882        -3.083924        -3.420714
