19
Iteration:  3536charge 0 multiplicity 1
 C         1.577797         0.351123        -0.229376
 C         0.137881        -0.008490        -0.018977
 C        -1.056116        -0.245067         0.144002
 C        -2.483741        -0.428459         0.355979
 O        -3.010753         0.751476         0.849465
 C        -3.230531        -0.898281        -0.870873
 O        -4.545972        -1.540431        -0.582230
 C        -3.500870        -2.336024        -1.213012
 C        -3.669060        -2.829242        -2.643983
 H         2.233953        -0.474771        -0.346587
 H         1.744161         1.002045        -1.090955
 H         1.803500         1.068033         0.582854
 H        -2.468414        -1.341491         1.046566
 H        -2.189759         1.191386         1.096769
 H        -3.267883        -0.273183        -1.821166
 H        -3.262160        -2.978112        -0.322479
 H        -4.225146        -3.782217        -2.676633
 H        -4.193182        -2.002793        -3.266079
 H        -2.680897        -2.946205        -3.031768
