19
Iteration:  1835
 C         1.396282        -0.150951        -0.196603
 C        -0.054412        -0.049074        -0.381665
 C        -1.202437        -0.091077         0.021221
 C        -2.655454        -0.108540         0.351607
 O        -3.205665         1.187360         0.548156
 C        -3.331519        -0.873748        -0.882290
 O        -4.366901        -1.761844        -0.361022
 C        -3.122931        -2.400591        -0.905822
 C        -3.223214        -2.880837        -2.377625
 H         1.834691        -0.540813        -1.161935
 H         1.793657         0.721612         0.172796
 H         1.786610        -0.920547         0.468706
 H        -2.797037        -0.670105         1.240780
 H        -3.436820         1.522373        -0.354019
 H        -3.517674        -0.168092        -1.704526
 H        -2.317634        -2.941069        -0.175257
 H        -3.498468        -3.943205        -2.429010
 H        -4.111435        -2.444783        -2.857514
 H        -2.359122        -2.645999        -3.009958
