19
Iteration:  1535charge 0 multiplicity 1
 C         1.533997         0.214591        -0.400057
 C         0.180599         0.054459        -0.038103
 C        -1.035287        -0.070829         0.166601
 C        -2.489903        -0.259954         0.332827
 O        -3.293073         0.989807         0.580872
 C        -3.121859        -0.979727        -0.844394
 O        -4.442059        -1.345327        -0.727374
 C        -3.589323        -2.457874        -0.930617
 C        -3.446493        -3.253441        -2.186306
 H         2.362916        -0.015107         0.259757
 H         1.917975        -0.350685        -1.316259
 H         1.608601         1.252422        -0.745466
 H        -2.572984        -1.059826         1.254472
 H        -3.742062         1.217914        -0.254260
 H        -2.830933        -0.542518        -1.864010
 H        -3.399511        -3.078589         0.069069
 H        -4.177333        -4.062007        -2.158308
 H        -3.449418        -2.792818        -3.228911
 H        -2.446112        -3.716247        -2.144098
