19
Iteration:   852
 C         1.626189         0.313104         0.048509
 C         0.169964         0.002025         0.009742
 C        -1.049270        -0.065816         0.065793
 C        -2.530409        -0.133646         0.064575
 O        -3.346472         0.996378         0.085995
 C        -3.099274        -0.988153        -0.955052
 O        -4.429919        -1.523346        -0.617276
 C        -3.360775        -2.463902        -0.809237
 C        -3.609625        -3.323200        -2.055618
 H         2.236871        -0.461885        -0.339544
 H         1.527483         1.368169        -0.392112
 H         1.804171         0.418388         1.097418
 H        -2.763088        -0.743214         0.941991
 H        -3.038902         1.885944         0.494341
 H        -3.130727        -0.638499        -2.004435
 H        -3.042155        -2.956377         0.168851
 H        -4.523074        -4.091528        -1.938425
 H        -3.905328        -2.595992        -2.858139
 H        -2.610358        -3.721392        -2.392816
