19
Iteration:   175
 C         1.504512         0.271587        -0.098672
 C         0.011591         0.170025        -0.020493
 C        -1.160066        -0.136502         0.076441
 C        -2.593037        -0.126928         0.150443
 O        -3.215138         1.129679         0.091866
 C        -3.020388        -1.086860        -0.902442
 O        -4.487906        -1.420329        -0.918719
 C        -3.481331        -2.414213        -0.700830
 C        -3.339563        -3.498383        -1.729273
 H         1.785339         1.324952        -0.402977
 H         2.036778         0.022937         0.884361
 H         1.914718        -0.489103        -0.827007
 H        -3.050540        -0.575417         1.030603
 H        -2.670263         1.718935        -0.429603
 H        -2.515441        -0.971586        -1.835505
 H        -3.486203        -2.928831         0.209375
 H        -4.174986        -4.193338        -1.605640
 H        -3.327293        -3.158824        -2.775266
 H        -2.439392        -4.110608        -1.622918
