19
Iteration:  1107charge 0 multiplicity 1
 C         1.355737        -0.171085        -0.367832
 C         0.041265        -0.106076        -0.005680
 C        -1.148422        -0.001426         0.103991
 C        -2.682534        -0.037553         0.301242
 O        -3.331608         1.258496         0.312734
 C        -3.193163        -0.871404        -0.884894
 O        -4.493387        -1.578538        -0.661428
 C        -3.193212        -2.351458        -0.873511
 C        -3.018511        -3.208618        -2.035129
 H         2.104771         0.393940         0.125995
 H         1.708042        -1.173093        -0.236396
 H         1.563624        -0.084595        -1.397944
 H        -2.839284        -0.617845         1.242270
 H        -4.152060         0.974969         0.685545
 H        -3.200234        -0.276127        -1.845214
 H        -3.057729        -2.823866         0.106338
 H        -3.688109        -4.066601        -2.149778
 H        -3.327168        -2.662475        -2.919056
 H        -1.956559        -3.436329        -2.177545
