19
Iteration:  2219
 C         1.511451         0.312248        -0.137677
 C         0.131091         0.052522         0.008851
 C        -1.033498        -0.249859        -0.009182
 C        -2.580564        -0.235068         0.191301
 O        -2.999295         1.046964         0.578824
 C        -3.390914        -0.864414        -0.956129
 O        -4.517597        -1.745905        -0.523753
 C        -3.267417        -2.346629        -1.027893
 C        -3.611712        -3.107694        -2.352371
 H         1.709421         1.474249        -0.195779
 H         2.280058        -0.039567         0.556063
 H         1.792262        -0.012646        -1.145279
 H        -2.678581        -0.982517         0.996074
 H        -2.259265         1.452053         1.054117
 H        -3.651567        -0.084572        -1.686648
 H        -2.834359        -2.967910        -0.291331
 H        -4.264947        -3.948905        -2.072926
 H        -4.229879        -2.629986        -3.139582
 H        -2.799593        -3.696625        -2.837908
