19
Iteration:  1825
 C         1.380906        -0.130386        -0.216612
 C        -0.082031        -0.147537        -0.307422
 C        -1.218163        -0.066374        -0.001943
 C        -2.664585        -0.121316         0.265026
 O        -3.158568         1.177313         0.540103
 C        -3.309261        -0.861024        -0.806520
 O        -4.329712        -1.791702        -0.323237
 C        -3.139002        -2.292557        -0.995132
 C        -3.263842        -2.874779        -2.331141
 H         1.983551        -0.113801        -1.124573
 H         1.762267         0.774350         0.172209
 H         1.562845        -0.972545         0.455260
 H        -2.968190        -0.731251         1.103123
 H        -3.576234         1.539718        -0.297396
 H        -3.454816        -0.477230        -1.841305
 H        -2.468106        -3.018996        -0.335518
 H        -3.233316        -3.936227        -2.334335
 H        -4.058569        -2.436002        -2.953791
 H        -2.291644        -2.750233        -2.856665
