19
Iteration:  1477
 C         1.482367         0.285659        -0.420380
 C         0.067159         0.151294        -0.090772
 C        -1.060961        -0.211587         0.260780
 C        -2.534444        -0.330996         0.370772
 O        -3.163138         1.013353         0.494143
 C        -3.021051        -1.051416        -0.853825
 O        -4.401237        -1.336756        -0.841538
 C        -3.474688        -2.451839        -0.813157
 C        -3.543898        -3.235205        -2.142963
 H         2.005137        -0.471143         0.080515
 H         1.708512         0.448673        -1.529513
 H         1.736224         1.162307         0.129386
 H        -2.834915        -1.049397         1.179711
 H        -3.882173         1.288521        -0.135477
 H        -2.650629        -0.692186        -1.851362
 H        -3.156775        -2.959062         0.031847
 H        -4.560166        -3.764797        -2.111368
 H        -3.672436        -2.504426        -2.952123
 H        -2.734995        -4.027629        -2.289194
