19
Iteration:  1040
 C         1.393330        -0.143741        -0.392648
 C        -0.047767         0.028547        -0.077954
 C        -1.266219         0.027622         0.201325
 C        -2.689381        -0.117463         0.398134
 O        -3.272544         1.280268         0.404685
 C        -3.133851        -0.915591        -0.820538
 O        -4.417595        -1.563768        -0.832024
 C        -3.229260        -2.405366        -0.805593
 C        -3.091373        -3.308594        -2.068667
 H         1.904692        -0.190234         0.509271
 H         1.471025        -1.129048        -0.923112
 H         1.933212         0.513928        -1.047297
 H        -3.234701        -0.523895         1.273974
 H        -3.248275         1.756623        -0.523865
 H        -2.849657        -0.384529        -1.771525
 H        -3.159813        -2.956879         0.137983
 H        -3.823209        -4.131093        -2.137501
 H        -3.246787        -2.729689        -3.008171
 H        -2.042583        -3.540946        -2.161215
