19
Iteration:  1782
 C         1.534301        -0.080667        -0.282318
 C         0.066482        -0.162455        -0.003151
 C        -1.176677        -0.123754        -0.041280
 C        -2.693604        -0.067646         0.234905
 O        -3.194085         1.276200         0.539620
 C        -3.501524        -0.854191        -0.789540
 O        -4.405039        -1.943407        -0.365366
 C        -3.166496        -2.271129        -1.084488
 C        -3.282987        -2.949560        -2.367430
 H         1.789694         0.405543        -1.239382
 H         2.037672         0.543600         0.443970
 H         2.179565        -0.966788        -0.274700
 H        -2.589499        -0.431557         1.270178
 H        -3.146347         1.888593        -0.236815
 H        -3.930467        -0.012619        -1.408381
 H        -2.271330        -2.694236        -0.543168
 H        -3.578367        -3.935292        -2.087054
 H        -3.999689        -2.630858        -3.130309
 H        -2.373329        -3.266360        -2.851167
