19
Iteration:  4379charge 0 multiplicity 1
 C         1.426463        -0.003623        -0.450007
 C        -0.006093        -0.046795        -0.254931
 C        -1.115240        -0.265907         0.145546
 C        -2.583350        -0.394545         0.441970
 O        -3.206853         0.668051         1.286593
 C        -3.246079        -0.799132        -0.813771
 O        -4.424505        -1.610954        -0.620077
 C        -3.340761        -2.128392        -1.301050
 C        -3.300608        -2.508397        -2.761386
 H         2.048975         0.791755        -0.037248
 H         1.742987        -0.956350         0.067672
 H         1.753427        -0.105757        -1.499897
 H        -2.875124        -1.252795         1.127115
 H        -2.477226         1.206250         1.628778
 H        -3.387283         0.086186        -1.569513
 H        -2.938068        -2.997342        -0.643262
 H        -3.736776        -3.538849        -2.933939
 H        -3.926121        -1.633988        -3.143545
 H        -2.228674        -2.643741        -2.998329
