19
Iteration:  3002
 C         1.460340         0.226369        -0.397180
 C         0.052578        -0.228328        -0.114877
 C        -1.118601        -0.354272         0.233236
 C        -2.626434        -0.280628         0.462929
 O        -3.157292         0.925664         0.756372
 C        -3.306584        -0.791043        -0.792344
 O        -4.410002        -1.606395        -0.570240
 C        -3.257355        -2.254737        -1.201672
 C        -3.442890        -2.854214        -2.543241
 H         2.170217        -0.638425        -0.494617
 H         1.613793         0.786076        -1.360904
 H         1.853774         1.015287         0.466723
 H        -2.936258        -1.109452         1.147114
 H        -2.441464         1.492198         1.089810
 H        -3.324895        -0.189510        -1.735152
 H        -2.748089        -2.997305        -0.414043
 H        -4.089299        -3.743237        -2.556834
 H        -3.810528        -2.164025        -3.249952
 H        -2.454828        -3.009790        -2.900996
