19
Iteration:   311
 C         1.595968         0.180705        -0.022144
 C         0.105266        -0.022758         0.135179
 C        -1.095973        -0.059491        -0.112499
 C        -2.636985        -0.062494         0.087015
 O        -3.264038         1.146459        -0.054688
 C        -3.255167        -0.933933        -0.891408
 O        -4.575369        -1.640175        -0.624590
 C        -3.424155        -2.375627        -0.728492
 C        -3.206258        -3.379764        -1.932260
 H         1.940276        -0.365066        -0.969414
 H         1.708822         1.211549        -0.393551
 H         2.206503        -0.370388         0.892941
 H        -2.948672        -0.517371         1.070180
 H        -2.959925         1.868099         0.529745
 H        -3.201638        -0.429554        -1.903352
 H        -3.030180        -2.767159         0.253695
 H        -3.722015        -4.345745        -1.670707
 H        -3.551973        -2.846722        -2.821270
 H        -2.122150        -3.576055        -1.848082
