19
Iteration:  4601
 C         1.433895        -0.014991        -0.315617
 C        -0.023534        -0.180223        -0.120241
 C        -1.173470        -0.195458         0.170685
 C        -2.528258        -0.395339         0.481680
 O        -2.991928         0.807165         1.057539
 C        -3.454695        -0.901908        -0.695610
 O        -4.310044        -1.953128        -0.422418
 C        -3.284022        -2.150937        -1.426565
 C        -3.535988        -2.211130        -2.955607
 H         1.749395         0.084127        -1.277832
 H         1.681937         0.895225         0.180716
 H         2.072051        -0.785104         0.254179
 H        -2.638232        -1.214990         1.249366
 H        -2.502884         1.579274         0.732739
 H        -3.951805        -0.111234        -1.215993
 H        -2.390659        -2.651317        -1.157820
 H        -3.835516        -3.232635        -3.155498
 H        -4.144301        -1.434009        -3.407143
 H        -2.521081        -2.104286        -3.283694
