19
Iteration:  4563
 C         1.456926        -0.020949        -0.273085
 C         0.052384        -0.061352        -0.049734
 C        -1.143456        -0.413139         0.052388
 C        -2.541199        -0.372461         0.477501
 O        -3.039739         0.871676         0.993460
 C        -3.521542        -0.949984        -0.566360
 O        -4.363175        -2.010399        -0.560333
 C        -3.217719        -2.079935        -1.412466
 C        -3.550184        -2.195526        -2.796564
 H         1.528908         0.380960        -1.411955
 H         1.881411         0.769490         0.446785
 H         2.014824        -0.913840        -0.349281
 H        -2.421117        -0.946317         1.366562
 H        -2.330796         1.497267         0.782116
 H        -3.704085         0.063966        -1.103556
 H        -2.243393        -2.676761        -1.068901
 H        -3.804857        -3.193151        -3.234039
 H        -4.331615        -1.501438        -3.250113
 H        -2.674975        -2.053338        -3.543123
