19
Iteration:  2952
 C         1.440841         0.237460        -0.460111
 C         0.066267        -0.012776        -0.023605
 C        -1.080096        -0.320724         0.303829
 C        -2.584913        -0.415521         0.452352
 O        -3.151439         0.995098         0.852916
 C        -3.123919        -0.908008        -0.828461
 O        -4.474895        -1.518854        -0.689100
 C        -3.407608        -2.403946        -1.127486
 C        -3.440012        -2.876048        -2.573008
 H         1.820466        -0.635878        -1.111670
 H         1.520168         1.204354        -0.938379
 H         2.063668         0.460439         0.309946
 H        -2.843048        -1.172747         1.269952
 H        -2.344209         1.492308         0.591874
 H        -3.231489        -0.190511        -1.694394
 H        -3.040331        -3.059647        -0.393875
 H        -4.334691        -3.554256        -2.562533
 H        -3.587788        -2.087298        -3.406600
 H        -2.558039        -3.567815        -2.870755
