19
Iteration:  3016charge 0 multiplicity 1
 C         1.472882         0.158850        -0.377900
 C         0.079099        -0.097787        -0.088165
 C        -1.074467        -0.315268         0.184895
 C        -2.548337        -0.362843         0.398925
 O        -3.154758         0.989337         0.776738
 C        -3.346023        -0.842230        -0.833206
 O        -4.523822        -1.637315        -0.507710
 C        -3.325468        -2.273275        -1.144761
 C        -3.373120        -2.851443        -2.636384
 H         2.139123        -0.826881        -0.165730
 H         1.555694         0.541483        -1.422852
 H         1.904028         0.966076         0.297198
 H        -2.739270        -0.917329         1.270777
 H        -2.525543         1.480341         1.342835
 H        -3.556601         0.040302        -1.535147
 H        -2.606444        -2.793681        -0.479351
 H        -3.755847        -3.842765        -2.687772
 H        -3.950346        -2.171151        -3.241974
 H        -2.337675        -2.992727        -2.993354
