19
Iteration:  2462charge 0 multiplicity 1
 C         1.384471        -0.017785        -0.529070
 C         0.012813         0.022249        -0.069582
 C        -1.191029        -0.278586         0.172737
 C        -2.589924        -0.296506         0.378491
 O        -3.113564         1.115589         0.765342
 C        -3.342288        -0.881644        -0.784738
 O        -4.584347        -1.623156        -0.626685
 C        -3.370707        -2.371611        -0.991899
 C        -3.021565        -2.853132        -2.360215
 H         1.709884        -0.981708        -0.803337
 H         1.506049         0.689805        -1.428599
 H         2.231845         0.376710         0.162384
 H        -2.938549        -0.828662         1.250889
 H        -3.324657         1.447286        -0.131201
 H        -3.237226        -0.220341        -1.698730
 H        -3.062327        -3.278024        -0.293889
 H        -3.388527        -3.879488        -2.589359
 H        -3.142320        -2.180848        -3.223384
 H        -1.886906        -2.781419        -2.512362
