19
Iteration:  2558
 C         1.422998        -0.030611        -0.395499
 C         0.014978         0.018067        -0.026783
 C        -1.150277        -0.035711         0.150756
 C        -2.556833        -0.285629         0.390556
 O        -3.226628         1.024834         0.671204
 C        -3.312333        -0.865711        -0.918744
 O        -4.411554        -1.708933        -0.564715
 C        -3.210469        -2.301999        -1.126850
 C        -3.363428        -2.928388        -2.393965
 H         2.012127        -0.701421         0.302972
 H         1.514614        -0.470623        -1.378901
 H         1.952981         0.883423        -0.485675
 H        -2.799276        -0.957677         1.270546
 H        -2.737781         1.369494         1.465275
 H        -3.186292        -0.176560        -1.796888
 H        -2.525284        -2.646253        -0.311823
 H        -4.092555        -3.720060        -2.276134
 H        -3.791538        -2.212995        -3.075469
 H        -2.385320        -3.145541        -2.847260
