19
Iteration:  4676
 C         1.416118        -0.082945        -0.511766
 C         0.067297        -0.040002         0.035219
 C        -1.111814        -0.106820         0.200412
 C        -2.561349        -0.463391         0.530657
 O        -3.158890         0.604169         1.244580
 C        -3.267124        -0.803217        -0.808405
 O        -4.340926        -1.672508        -0.525131
 C        -3.320192        -2.099557        -1.452433
 C        -3.498008        -2.441130        -2.918342
 H         1.621208        -0.810064        -1.257789
 H         1.795169         0.868640        -0.747860
 H         2.065823        -0.282366         0.428875
 H        -2.600592        -1.248308         1.123300
 H        -2.939221         1.442963         0.801326
 H        -3.501237         0.038539        -1.337507
 H        -2.823805        -2.971623        -1.042441
 H        -3.723521        -3.524729        -2.967206
 H        -4.156703        -1.656935        -3.376942
 H        -2.545327        -2.217198        -3.288002
