19
Iteration:   766charge 0 multiplicity 1
 C         1.540065         0.402447         0.071870
 C         0.154766         0.052266         0.082398
 C        -1.029967        -0.143638        -0.067021
 C        -2.514566        -0.195646         0.169498
 O        -3.100162         1.107882         0.187470
 C        -3.260939        -0.983229        -0.952840
 O        -4.547797        -1.582514        -0.713357
 C        -3.454825        -2.431331        -0.844513
 C        -3.507813        -3.377847        -1.998529
 H         1.905864         0.415218        -0.976013
 H         1.785984         1.454300         0.474681
 H         2.196147        -0.304704         0.561350
 H        -2.852669        -0.708357         1.065632
 H        -2.941634         1.238143        -0.775569
 H        -3.286378        -0.581651        -2.011066
 H        -3.341038        -2.822479         0.207837
 H        -4.213451        -4.156676        -1.887764
 H        -3.563132        -2.846626        -2.919835
 H        -2.550945        -3.847090        -2.145816
