19
Iteration:  3977
 C         1.476615         0.076171        -0.373790
 C         0.012751        -0.050155         0.009715
 C        -1.164002        -0.213316         0.196569
 C        -2.528219        -0.476161         0.516337
 O        -3.035197         0.879640         0.868788
 C        -3.292611        -0.851357        -0.791535
 O        -4.517043        -1.714441        -0.589704
 C        -3.300862        -2.298497        -1.216331
 C        -3.476155        -2.554283        -2.748147
 H         1.435356         0.357042        -1.366669
 H         1.701055         1.127566        -0.041259
 H         2.154337        -0.707976        -0.055989
 H        -2.612589        -1.300516         1.217824
 H        -2.217255         1.207955         1.264032
 H        -3.336563        -0.050901        -1.588302
 H        -2.759004        -3.152011        -0.702530
 H        -4.001916        -3.454524        -3.167010
 H        -3.881031        -1.629793        -3.162130
 H        -2.489317        -2.526279        -3.238422
