19
Iteration:  3487
 C         1.492448         0.420393        -0.218516
 C         0.069588        -0.025330        -0.137780
 C        -1.060249        -0.422234         0.049769
 C        -2.459020        -0.538583         0.374583
 O        -2.963283         0.815989         0.866261
 C        -3.301470        -0.925341        -0.838178
 O        -4.568394        -1.477062        -0.720704
 C        -3.483008        -2.317358        -1.128665
 C        -3.548216        -2.754524        -2.519868
 H         1.944065        -0.337110        -0.809122
 H         1.690431         1.351750        -0.762093
 H         2.011122         0.524122         0.731115
 H        -2.562000        -1.312271         1.213528
 H        -2.291714         1.086025         1.539757
 H        -3.111737        -0.394921        -1.726608
 H        -3.138038        -2.871052        -0.356024
 H        -4.220395        -3.616845        -2.513372
 H        -3.940320        -1.943298        -3.072248
 H        -2.506866        -3.045343        -2.829159
