19
Iteration:  1602
 C         1.465674         0.121335        -0.261844
 C        -0.015151         0.050786        -0.333546
 C        -1.147348        -0.104699         0.034284
 C        -2.572032        -0.253422         0.327136
 O        -3.118808         1.102945         0.768779
 C        -3.211299        -0.910149        -0.899462
 O        -4.483462        -1.447551        -0.723643
 C        -3.391572        -2.366650        -0.952565
 C        -3.315166        -3.334190        -2.234397
 H         1.783956         0.610059         0.687018
 H         1.888740        -0.877753        -0.285120
 H         1.672848         0.768084        -1.131741
 H        -2.732209        -0.977714         1.211781
 H        -2.735873         1.949692         0.469653
 H        -2.980593        -0.518102        -1.917476
 H        -3.180458        -2.993536         0.057872
 H        -3.947785        -4.126765        -1.851524
 H        -3.691183        -2.866815        -3.162974
 H        -2.310116        -3.760969        -2.238585
