19
Iteration:  4398charge 0 multiplicity 1
 C         1.396820        -0.095106        -0.424360
 C        -0.040428        -0.095549        -0.232786
 C        -1.202171        -0.093649         0.099772
 C        -2.505928        -0.469793         0.556155
 O        -3.173785         0.647878         1.141221
 C        -3.301806        -0.809298        -0.731600
 O        -4.468734        -1.581562        -0.572038
 C        -3.153689        -2.154993        -1.266693
 C        -3.383285        -2.474576        -2.834182
 H         1.744104         0.989051        -0.144642
 H         1.800725        -0.781499         0.346676
 H         1.693385        -0.122512        -1.428395
 H        -2.456579        -1.425056         1.225695
 H        -2.477533         1.233035         1.451468
 H        -3.274723         0.070753        -1.401727
 H        -2.568883        -2.998811        -0.627130
 H        -3.861059        -3.447050        -3.143529
 H        -3.867273        -1.575626        -3.338115
 H        -2.283120        -2.583061        -3.303257
