19
Iteration:  1547charge 0 multiplicity 1
 C         1.609706         0.232438        -0.453532
 C         0.227470        -0.017667         0.027451
 C        -1.053079        -0.069520         0.102888
 C        -2.509665        -0.291165         0.299256
 O        -3.297641         0.922029         0.598867
 C        -3.126882        -0.959424        -0.919105
 O        -4.552600        -1.404415        -0.757566
 C        -3.525446        -2.355814        -0.886162
 C        -3.407908        -3.217046        -2.123151
 H         2.198997         0.216084         0.496166
 H         1.783532        -0.536631        -1.244911
 H         1.720273         1.284427        -0.819914
 H        -2.722050        -0.680733         1.425946
 H        -3.718058         1.202396        -0.212445
 H        -2.959375        -0.321112        -1.838702
 H        -3.314509        -2.974569         0.135400
 H        -4.116311        -4.023631        -2.220115
 H        -3.515139        -2.502637        -2.999358
 H        -2.433302        -3.685901        -2.033188
