19
Iteration:  2686
 C         1.526756         0.288061        -0.326281
 C         0.171600        -0.016926         0.105325
 C        -1.062729        -0.186075         0.217152
 C        -2.576671        -0.310121         0.356085
 O        -2.984832         0.998292         0.755982
 C        -3.346638        -0.916351        -0.926119
 O        -4.541727        -1.692907        -0.571262
 C        -3.418330        -2.359696        -1.146888
 C        -3.547223        -2.948897        -2.573751
 H         1.929762         1.173044         0.284133
 H         2.057027        -0.559236         0.047010
 H         1.588875         0.439000        -1.378844
 H        -3.071337        -0.951512         1.152758
 H        -2.417057         1.553404         0.187482
 H        -3.466810        -0.185349        -1.720756
 H        -2.766947        -2.860477        -0.519566
 H        -3.781254        -4.088344        -2.468522
 H        -4.186174        -2.575313        -3.358640
 H        -2.530010        -3.317907        -2.910640
