19
Iteration:   478
 C         1.404751        -0.123544        -0.083005
 C        -0.094745        -0.138609        -0.213478
 C        -1.261041         0.027500         0.060535
 C        -2.743980         0.049673         0.227184
 O        -3.249074         1.453068         0.118174
 C        -3.315852        -0.944871        -0.828110
 O        -4.411023        -1.730838        -0.625737
 C        -3.154738        -2.473096        -0.725657
 C        -2.984943        -3.288736        -2.023765
 H         1.679601        -0.489579         0.909914
 H         1.795414        -1.043686        -0.551550
 H         1.885453         0.866223        -0.242995
 H        -3.121716        -0.092162         1.250392
 H        -3.007968         1.735804        -0.753815
 H        -3.199445        -0.480453        -1.784399
 H        -2.629534        -2.953458         0.184288
 H        -3.428094        -4.275556        -1.914654
 H        -3.646843        -2.752306        -2.716849
 H        -2.074725        -3.241183        -2.515789
