19
Iteration:  2123
 C         1.582372         0.233847        -0.246704
 C         0.201845         0.134428         0.084197
 C        -1.006537        -0.003812        -0.028371
 C        -2.468000        -0.288960         0.322461
 O        -3.181207         0.906878         0.552885
 C        -3.205464        -1.020252        -0.878355
 O        -4.555029        -1.499675        -0.503373
 C        -3.514994        -2.415889        -1.013708
 C        -3.528461        -3.131543        -2.354016
 H         2.200896         0.629898         0.510104
 H         2.096647        -0.722541        -0.543473
 H         1.697282         0.892971        -1.101161
 H        -2.651084        -1.131286         1.012060
 H        -3.577725         1.173796        -0.327425
 H        -3.185484        -0.469462        -1.812486
 H        -3.080179        -3.022926        -0.173962
 H        -4.210187        -3.958379        -2.513856
 H        -3.861000        -2.440646        -3.153792
 H        -2.486425        -3.437739        -2.580053
