19
Iteration:   424
 C         1.466203        -0.105990        -0.129731
 C        -0.011260         0.018477         0.205718
 C        -1.256799        -0.049623         0.017706
 C        -2.737513        -0.021058         0.072753
 O        -3.253342         1.282104        -0.017627
 C        -3.326513        -0.937030        -0.950971
 O        -4.477843        -1.655854        -0.348997
 C        -3.179298        -2.433650        -0.825430
 C        -3.046440        -3.203803        -2.043848
 H         2.105590        -0.881315         0.274395
 H         1.496174        -0.151314        -1.276565
 H         1.963058         0.814911         0.271334
 H        -3.155193        -0.398259         1.024641
 H        -2.748928         1.782682        -0.625860
 H        -3.423241        -0.614627        -1.959330
 H        -2.670400        -2.974563         0.068350
 H        -3.476968        -4.200929        -2.115930
 H        -3.383914        -2.894807        -3.019064
 H        -2.027830        -3.579348        -2.210200
