19
Iteration:  2925charge 0 multiplicity 1
 C         1.458370         0.216226        -0.483596
 C         0.114251         0.109885         0.014745
 C        -1.022651        -0.201542         0.289597
 C        -2.485001        -0.410089         0.493179
 O        -3.105864         0.795545         0.812572
 C        -3.248357        -0.927663        -0.772002
 O        -4.577838        -1.437195        -0.748700
 C        -3.527391        -2.386324        -1.126516
 C        -3.363131        -2.896226        -2.556351
 H         1.597578        -0.515960        -1.252565
 H         1.780583         1.253938        -0.699147
 H         2.275717         0.067403         0.363138
 H        -2.550779        -1.107419         1.276182
 H        -2.718934         1.460082         0.202361
 H        -3.296178        -0.226261        -1.587269
 H        -3.311945        -3.232760        -0.348645
 H        -4.141298        -3.644562        -2.581639
 H        -3.409733        -2.234908        -3.362154
 H        -2.511392        -3.488080        -2.607110
