19
Iteration:  3142charge 0 multiplicity 1
 C         1.455501        -0.072001        -0.387031
 C         0.040940        -0.008128         0.069799
 C        -1.170301        -0.149740         0.125656
 C        -2.606724        -0.230882         0.358998
 O        -3.199726         0.985570         0.811303
 C        -3.367085        -0.827233        -0.831567
 O        -4.322056        -1.825072        -0.479973
 C        -3.064126        -2.225364        -1.257992
 C        -3.524286        -2.712600        -2.633389
 H         2.310474         0.087115         0.511363
 H         1.642889        -1.078931        -0.842259
 H         1.646700         0.532120        -1.337325
 H        -2.582101        -0.933739         1.159605
 H        -2.854567         1.352912         1.633082
 H        -3.769943        -0.166068        -1.563730
 H        -2.376356        -2.891511        -0.693090
 H        -4.250989        -3.616854        -2.357589
 H        -4.097363        -1.969045        -3.234275
 H        -2.592906        -3.058743        -3.177868
