19
Iteration:  2369charge 0 multiplicity 1
 C         1.440244        -0.031348        -0.550140
 C         0.045761         0.061500        -0.005833
 C        -1.139633        -0.034401         0.201418
 C        -2.653994        -0.275591         0.455278
 O        -3.274690         0.936760         0.730138
 C        -3.198990        -0.789486        -0.880791
 O        -4.496583        -1.608081        -0.685686
 C        -3.181487        -2.176690        -1.029097
 C        -3.309876        -3.128563        -2.353623
 H         1.557246        -0.380525        -1.600168
 H         1.971885         0.851114        -0.416782
 H         1.987569        -0.734878         0.021753
 H        -2.835285        -1.172474         1.217206
 H        -2.641099         1.685755         0.684178
 H        -3.352603        -0.075579        -1.693117
 H        -2.746457        -2.807450        -0.190941
 H        -3.849796        -4.002511        -2.043040
 H        -3.541827        -2.598621        -3.287647
 H        -2.350846        -3.406044        -2.719733
