19
Iteration:  3671
 C         1.529097         0.130687        -0.284065
 C         0.131264        -0.091130        -0.173251
 C        -1.096513        -0.158763         0.081533
 C        -2.574343        -0.395461         0.307721
 O        -3.115310         0.758168         1.020170
 C        -3.328306        -0.854271        -0.830465
 O        -4.456773        -1.575765        -0.528450
 C        -3.435988        -2.303068        -1.170440
 C        -3.453723        -2.686448        -2.638031
 H         2.057214         0.168043         0.729512
 H         2.069465        -0.471344        -1.001549
 H         1.596803         1.071725        -0.676261
 H        -2.616437        -1.182135         1.036115
 H        -2.858860         1.529557         0.469513
 H        -3.571530        -0.171186        -1.590962
 H        -2.830818        -2.921373        -0.577449
 H        -3.887862        -3.682052        -2.762414
 H        -3.829263        -2.052937        -3.396954
 H        -2.344608        -2.799780        -2.872637
