19
Iteration:  3619charge 0 multiplicity 1
 C         1.578953         0.161352        -0.246784
 C         0.163022         0.125768        -0.089695
 C        -0.991820        -0.109004         0.116302
 C        -2.466880        -0.350164         0.432486
 O        -3.175443         0.795444         1.013483
 C        -3.177998        -0.920751        -0.912625
 O        -4.474671        -1.659478        -0.583353
 C        -3.384378        -2.341038        -1.197747
 C        -3.748946        -2.797443        -2.721060
 H         1.976084        -0.466669         0.649604
 H         1.807892        -0.315953        -1.207112
 H         2.250837         1.066056        -0.061491
 H        -2.433371        -1.106023         1.184656
 H        -3.040695         1.433367         0.276758
 H        -3.559291        -0.206206        -1.667522
 H        -2.828736        -3.086547        -0.584315
 H        -4.673316        -3.467601        -2.706582
 H        -4.019575        -1.897952        -3.309814
 H        -2.845887        -3.242242        -3.286754
