19
Iteration:  2846
 C         1.492990         0.227741        -0.309513
 C         0.079719         0.003053        -0.165751
 C        -1.079691        -0.124168         0.189755
 C        -2.452738        -0.451274         0.364897
 O        -3.193653         0.719946         0.993874
 C        -3.163155        -0.794441        -0.937442
 O        -4.496133        -1.357069        -0.806063
 C        -3.387838        -2.210276        -1.134846
 C        -3.513607        -3.147782        -2.400007
 H         1.783546         0.592129        -1.259437
 H         1.796343         1.127467         0.277833
 H         2.151931        -0.723465        -0.152053
 H        -2.393976        -1.104365         1.167211
 H        -3.068643         1.564488         0.514085
 H        -3.018511        -0.108240        -1.727710
 H        -3.230729        -2.981381        -0.361935
 H        -4.175990        -3.913682        -2.129135
 H        -4.022963        -2.638796        -3.220342
 H        -2.601754        -3.537707        -2.670261
