19
Iteration:  3411charge 0 multiplicity 1
 C         1.465425         0.212451        -0.453631
 C         0.109432         0.076124        -0.001957
 C        -1.041516        -0.177789         0.262865
 C        -2.491507        -0.501567         0.453894
 O        -3.133411         0.795580         0.891490
 C        -3.205585        -0.910397        -0.877653
 O        -4.504299        -1.496916        -0.729188
 C        -3.335152        -2.293734        -1.146201
 C        -3.593434        -2.814738        -2.592777
 H         1.539278        -0.072037        -1.395527
 H         1.917391         1.209272        -0.268920
 H         2.053323        -0.606848         0.163241
 H        -2.834643        -1.361074         1.107593
 H        -2.461237         1.095251         1.528902
 H        -3.114547        -0.146108        -1.618927
 H        -3.097474        -2.960052        -0.365457
 H        -4.318801        -3.598712        -2.555364
 H        -3.817011        -2.014779        -3.237357
 H        -2.663146        -3.291800        -2.961246
