19
Iteration:   302charge 0 multiplicity 1
 C         1.565403         0.201753        -0.016548
 C         0.082499        -0.037309         0.009181
 C        -1.151758        -0.052056        -0.075987
 C        -2.580864        -0.131916         0.194614
 O        -3.276285         1.250381        -0.075167
 C        -3.208043        -0.987541        -0.917274
 O        -4.562744        -1.589990        -0.635009
 C        -3.412521        -2.446063        -0.777079
 C        -3.228100        -3.363932        -1.882662
 H         1.933382        -0.342243        -0.884377
 H         1.914151         1.263556         0.003774
 H         2.145933        -0.304900         0.887664
 H        -2.809080        -0.404669         1.237367
 H        -2.961478         1.726057         0.724811
 H        -3.129670        -0.675582        -1.959098
 H        -3.167522        -2.842685         0.268747
 H        -3.731167        -4.365348        -1.789843
 H        -3.522377        -3.057184        -2.900825
 H        -2.167518        -3.630950        -1.943916
