19
Iteration:  1221
 C         1.484067         0.047790        -0.186349
 C         0.124456        -0.092547         0.015661
 C        -1.114730        -0.132310         0.032215
 C        -2.627970        -0.123195         0.160794
 O        -3.182645         1.292088         0.344836
 C        -3.305027        -0.934092        -0.857768
 O        -4.502840        -1.681929        -0.481011
 C        -3.237605        -2.387674        -0.916997
 C        -3.313359        -3.163781        -2.214974
 H         1.541923         0.942349        -0.836133
 H         2.035714         0.241226         0.649516
 H         1.731647        -0.816943        -0.836028
 H        -2.790789        -0.480912         1.175633
 H        -4.048116         1.397864        -0.177447
 H        -3.292546        -0.410435        -1.810139
 H        -2.736895        -2.884641        -0.057871
 H        -3.772206        -4.189335        -2.168991
 H        -3.748130        -2.711344        -3.162391
 H        -2.176553        -3.296837        -2.265325
