19
Iteration:  2973charge 0 multiplicity 1
 C         1.314038         0.244328        -0.393479
 C        -0.005307        -0.200156        -0.066462
 C        -1.158535        -0.243745         0.255448
 C        -2.556568        -0.344341         0.468255
 O        -3.076255         0.915488         0.785255
 C        -3.144059        -0.846404        -0.815876
 O        -4.430723        -1.572689        -0.701833
 C        -3.205636        -2.316445        -1.140304
 C        -3.532208        -2.860392        -2.487649
 H         1.896489        -0.677561        -0.838375
 H         1.310370         1.079982        -1.062737
 H         1.867419         0.680559         0.335004
 H        -2.792889        -1.143272         1.176910
 H        -2.360529         1.564491         0.842081
 H        -3.070200        -0.369329        -1.825690
 H        -2.739927        -2.980030        -0.460013
 H        -4.405686        -3.492702        -2.607651
 H        -3.627324        -1.899606        -3.044179
 H        -2.614907        -3.333143        -2.956315
