19
Iteration:   391
 C         1.433161        -0.044955        -0.039362
 C        -0.098830        -0.048383        -0.181193
 C        -1.240861         0.028916         0.203488
 C        -2.730568         0.048734         0.281586
 O        -3.183913         1.367400        -0.042710
 C        -3.254364        -0.959973        -0.867225
 O        -4.370310        -1.799560        -0.610951
 C        -3.096531        -2.436865        -0.826096
 C        -3.259442        -3.332618        -2.013135
 H         1.896862        -0.984789         0.233859
 H         1.920463         0.493803        -0.880243
 H         1.621777         0.770100         0.690099
 H        -3.215685        -0.272263         1.217905
 H        -2.518487         2.067561        -0.267617
 H        -3.235506        -0.472225        -1.808258
 H        -2.700781        -2.904661         0.139093
 H        -3.844478        -4.230742        -1.619009
 H        -3.867893        -2.805716        -2.769434
 H        -2.330191        -3.682910        -2.472975
