19
Iteration:   172
 C         1.485490         0.262796        -0.083405
 C         0.018524         0.189026        -0.069168
 C        -1.168398        -0.161482         0.092596
 C        -2.590512        -0.114576         0.162098
 O        -3.208810         1.133648         0.099075
 C        -3.020147        -1.101515        -0.895484
 O        -4.472817        -1.417495        -0.933815
 C        -3.478032        -2.403836        -0.688562
 C        -3.330414        -3.510560        -1.754681
 H         1.868767         1.279724        -0.315466
 H         2.017641         0.058340         0.889375
 H         1.811411        -0.396340        -0.833728
 H        -3.088686        -0.541914         1.113091
 H        -2.672608         1.753612        -0.491554
 H        -2.591511        -1.038679        -1.926845
 H        -3.480679        -2.968982         0.366475
 H        -4.231618        -4.161780        -1.511119
 H        -3.395836        -3.072240        -2.788059
 H        -2.442074        -4.155724        -1.611185
