19
Iteration:  2331charge 0 multiplicity 1
 C         1.449132         0.030983        -0.473316
 C         0.119369         0.078880         0.014511
 C        -1.136024        -0.030928         0.162780
 C        -2.589704        -0.213031         0.357304
 O        -3.281974         0.997435         0.672851
 C        -3.092839        -0.929428        -0.880279
 O        -4.470814        -1.605751        -0.561704
 C        -3.395108        -2.425822        -1.010784
 C        -3.347795        -3.016727        -2.433759
 H         1.492224         0.301203        -1.532024
 H         2.027515         0.851315         0.132718
 H         1.938306        -0.992660        -0.226636
 H        -2.857782        -0.742079         1.242095
 H        -2.564559         1.594641         0.840059
 H        -3.033955        -0.423650        -1.850379
 H        -3.085711        -3.017941        -0.206244
 H        -3.851367        -4.050329        -2.513604
 H        -3.980629        -2.416723        -3.068311
 H        -2.238306        -3.178222        -2.704022
