19
Iteration:   336charge 0 multiplicity 1
 C         1.514685         0.119277        -0.055782
 C         0.076421         0.029803         0.176023
 C        -1.170900        -0.023416         0.017183
 C        -2.590249        -0.176529         0.013459
 O        -3.253442         1.254860        -0.014664
 C        -3.341319        -1.001273        -1.020304
 O        -4.541741        -1.615714        -0.525978
 C        -3.256830        -2.382438        -0.765476
 C        -3.204731        -3.361656        -1.950321
 H         1.684159        -0.752774        -0.676445
 H         1.792841         0.905252        -0.771226
 H         2.103664        -0.111477         0.875942
 H        -3.038972        -0.611910         0.920468
 H        -2.631610         1.917021         0.260853
 H        -3.309865        -0.606283        -1.992023
 H        -2.797973        -2.690390         0.253152
 H        -3.767663        -4.246811        -1.648703
 H        -3.610674        -2.802017        -2.806602
 H        -2.144072        -3.545525        -2.038669
