19
Iteration:  2241charge 0 multiplicity 1
 C         1.456023         0.310603        -0.211623
 C         0.152792        -0.015933         0.147851
 C        -1.068636        -0.154841        -0.143956
 C        -2.576717        -0.319457         0.231067
 O        -2.967644         1.062005         0.523037
 C        -3.420199        -0.873278        -0.842688
 O        -4.509591        -1.719630        -0.499128
 C        -3.368390        -2.360926        -1.094677
 C        -3.521582        -3.064624        -2.307350
 H         1.654972         1.412421        -0.578956
 H         2.222903         0.169962         0.575436
 H         1.798262        -0.378835        -0.997132
 H        -2.597015        -0.989304         1.042311
 H        -2.564745         1.300137         1.389065
 H        -3.530752        -0.307589        -1.775835
 H        -2.665086        -2.950125        -0.439635
 H        -4.236036        -3.863455        -2.461441
 H        -3.843978        -2.461158        -3.190807
 H        -2.551548        -3.552879        -2.567049
