19
Iteration:  1546charge 0 multiplicity 1
 C         1.604853         0.231402        -0.448018
 C         0.225635        -0.011369         0.024706
 C        -1.046306        -0.068663         0.108820
 C        -2.511978        -0.297542         0.296461
 O        -3.299904         0.929064         0.600176
 C        -3.126693        -0.958174        -0.916755
 O        -4.538500        -1.402544        -0.754078
 C        -3.538623        -2.366690        -0.886910
 C        -3.411344        -3.217585        -2.126886
 H         2.192959         0.213864         0.464988
 H         1.796112        -0.525305        -1.284266
 H         1.710133         1.258145        -0.804002
 H        -2.711264        -0.630120         1.412159
 H        -3.709538         1.178138        -0.211722
 H        -2.935767        -0.299797        -1.828956
 H        -3.326123        -2.978633         0.126285
 H        -4.127823        -4.034210        -2.224203
 H        -3.511094        -2.531836        -3.051053
 H        -2.419182        -3.689717        -2.031481
