19
Iteration:  3833
 C         1.338875        -0.099874        -0.602687
 C        -0.087505        -0.085948        -0.230235
 C        -1.166921        -0.158543         0.347816
 C        -2.578340        -0.363100         0.624798
 O        -3.225416         0.821263         1.086187
 C        -3.149460        -0.807286        -0.780451
 O        -4.453809        -1.625891        -0.677926
 C        -3.240193        -2.203292        -1.194009
 C        -3.197407        -2.611988        -2.675911
 H         1.649118         0.909752        -0.778558
 H         1.989828        -0.621348         0.134436
 H         1.319483        -0.658721        -1.603107
 H        -2.631427        -1.125803         1.455126
 H        -3.126272         1.360540         0.271481
 H        -3.052775        -0.074012        -1.526363
 H        -2.854853        -2.926136        -0.522803
 H        -4.091165        -3.142721        -2.982780
 H        -3.208048        -1.666908        -3.137154
 H        -2.267453        -3.110691        -2.967929
