19
Iteration:  2419charge 0 multiplicity 1
 C         1.348181         0.007171        -0.465734
 C        -0.030844        -0.211776        -0.329429
 C        -1.188237        -0.075723         0.188827
 C        -2.634203        -0.276173         0.451489
 O        -3.203753         1.047218         0.823570
 C        -3.257011        -0.865285        -0.824463
 O        -4.476225        -1.613411        -0.741543
 C        -3.261736        -2.305827        -0.983621
 C        -3.114035        -2.911538        -2.284619
 H         1.739690        -0.698974        -1.193352
 H         1.544999         1.105025        -0.857986
 H         1.897827        -0.048751         0.592550
 H        -2.705505        -0.952460         1.289343
 H        -2.811522         1.779762         0.365217
 H        -3.257108        -0.326878        -1.802408
 H        -2.858229        -2.861087        -0.040480
 H        -3.847524        -3.776835        -2.332719
 H        -3.292306        -2.232562        -3.161179
 H        -1.993484        -3.144539        -2.473683
