19
Iteration:  2222charge 0 multiplicity 1
 C         1.524602         0.318796        -0.159344
 C         0.115265         0.046501         0.052054
 C        -1.058979        -0.244147        -0.033127
 C        -2.538460        -0.219135         0.200609
 O        -2.990702         1.039340         0.571334
 C        -3.411441        -0.873518        -0.975220
 O        -4.528618        -1.755768        -0.526671
 C        -3.271901        -2.334981        -1.007266
 C        -3.604038        -3.118215        -2.373921
 H         1.672299         1.358409        -0.234473
 H         2.280767         0.008248         0.616175
 H         1.786212        -0.030129        -1.178982
 H        -2.650482        -1.028229         1.093023
 H        -2.267572         1.449317         1.130218
 H        -3.649557        -0.078278        -1.652957
 H        -2.791600        -2.848341        -0.229311
 H        -4.297560        -3.931572        -2.027745
 H        -4.160573        -2.540421        -3.104917
 H        -2.779467        -3.686994        -2.852736
