19
Iteration:  2414charge 0 multiplicity 1
 C         1.363110         0.038880        -0.471387
 C        -0.070907        -0.233371        -0.317038
 C        -1.178958        -0.064483         0.187296
 C        -2.648809        -0.252393         0.421560
 O        -3.226151         1.042528         0.858092
 C        -3.241439        -0.895555        -0.877791
 O        -4.463694        -1.592936        -0.721199
 C        -3.268669        -2.302848        -0.983120
 C        -3.115982        -2.946697        -2.276952
 H         1.861343        -0.683467        -1.153238
 H         1.630231         0.989843        -0.748202
 H         1.834907        -0.186979         0.403523
 H        -2.846295        -0.792485         1.415024
 H        -2.668577         1.753689         0.418954
 H        -3.019028        -0.315368        -1.773843
 H        -2.640376        -2.777014        -0.222363
 H        -3.790885        -3.751470        -2.377292
 H        -3.335770        -2.187368        -3.009830
 H        -2.168876        -3.250898        -2.605611
