19
Iteration:  1472
 C         1.506878         0.289579        -0.440677
 C         0.097965         0.115811        -0.063045
 C        -1.097973        -0.195792         0.243238
 C        -2.534122        -0.359940         0.330400
 O        -3.156081         1.032764         0.513144
 C        -3.049493        -1.019438        -0.864880
 O        -4.376028        -1.320963        -0.802827
 C        -3.500641        -2.454423        -0.856581
 C        -3.541281        -3.256846        -2.125113
 H         2.131445        -0.512942         0.100830
 H         1.597558         0.646744        -1.444270
 H         1.703578         1.256975         0.165942
 H        -2.998393        -0.942648         1.144574
 H        -3.870421         0.917694        -0.183180
 H        -2.734329        -0.702100        -1.837502
 H        -3.243134        -3.035646         0.111756
 H        -4.500264        -3.759256        -2.199055
 H        -3.558668        -2.640057        -3.043401
 H        -2.686719        -3.916291        -2.141302
