19
Iteration:  1369
 C         1.534066         0.243877        -0.175358
 C         0.071830         0.199851        -0.226808
 C        -1.112621        -0.101205         0.073209
 C        -2.500974        -0.346556         0.327350
 O        -3.128209         1.017285         0.455494
 C        -3.113222        -0.965106        -0.902642
 O        -4.523263        -1.405240        -0.749922
 C        -3.457642        -2.392160        -0.944110
 C        -3.531950        -3.355819        -2.081163
 H         2.048650        -0.259698        -0.941909
 H         1.909795         1.318675        -0.165154
 H         1.714619        -0.041990         0.824369
 H        -2.636084        -1.133956         1.049400
 H        -2.458264         1.551612         0.826181
 H        -3.090803        -0.546202        -1.927927
 H        -3.325103        -3.066805        -0.078342
 H        -4.113006        -4.166494        -1.709791
 H        -3.851909        -2.964555        -3.005304
 H        -2.559730        -3.748060        -2.300270
