19
Iteration:  2352
 C         1.481990        -0.022685        -0.520275
 C         0.082150         0.116714         0.027042
 C        -1.059198         0.007201         0.308558
 C        -2.544427        -0.261552         0.350596
 O        -3.292356         0.957602         0.697818
 C        -3.337977        -0.846107        -0.875091
 O        -4.469845        -1.604213        -0.677608
 C        -3.313774        -2.377723        -1.082530
 C        -3.300098        -3.056432        -2.337897
 H         1.255285        -0.078770        -1.594402
 H         2.165261         0.892441        -0.335128
 H         1.962004        -0.986315        -0.143099
 H        -2.641138        -1.025460         1.088703
 H        -2.657158         1.719885         0.741632
 H        -3.292508        -0.138657        -1.699329
 H        -2.786369        -2.839431        -0.234104
 H        -3.926002        -3.977162        -2.159302
 H        -3.869445        -2.458837        -3.061332
 H        -2.234259        -3.354616        -2.642632
