19
Iteration:  3476charge 0 multiplicity 1
 C         1.429335         0.399881        -0.266009
 C         0.104301        -0.110568        -0.116825
 C        -1.063407        -0.347363         0.057846
 C        -2.474502        -0.508143         0.367068
 O        -2.979894         0.785414         0.866162
 C        -3.175863        -0.833200        -0.911864
 O        -4.593385        -1.500850        -0.691645
 C        -3.486528        -2.308573        -1.050135
 C        -3.541538        -2.785548        -2.491910
 H         2.082976        -0.197340        -0.844647
 H         1.359625         1.427639        -0.620745
 H         1.857449         0.313453         0.724665
 H        -2.617370        -1.386301         1.103898
 H        -2.345843         1.062395         1.552013
 H        -3.076843        -0.105292        -1.668059
 H        -3.164744        -3.047170        -0.433889
 H        -4.217778        -3.532171        -2.878335
 H        -3.764441        -1.967408        -3.122728
 H        -2.551956        -3.091541        -2.937448
