19
Iteration:  1404
 C         1.566481         0.332161        -0.281550
 C         0.035399         0.165488        -0.110015
 C        -1.082610        -0.250872         0.055877
 C        -2.494011        -0.320279         0.214104
 O        -3.099271         1.054247         0.539704
 C        -3.119428        -1.000275        -0.967012
 O        -4.544333        -1.400108        -0.844080
 C        -3.480131        -2.410200        -0.844841
 C        -3.512165        -3.312515        -2.037873
 H         2.157687        -0.550103        -0.611354
 H         1.798045         1.330825        -0.726797
 H         1.908809         0.422125         0.769866
 H        -2.592048        -0.941135         1.106573
 H        -3.214132         1.064721         1.456708
 H        -2.669288        -0.613944        -1.925681
 H        -3.648030        -2.936044         0.156627
 H        -4.282986        -4.034627        -1.997295
 H        -3.674836        -2.729254        -2.961485
 H        -2.556502        -3.792357        -2.040054
