19
Iteration:  1563
 C         1.541285         0.191435        -0.362435
 C         0.191666        -0.013196        -0.048904
 C        -1.083325        -0.082735         0.058739
 C        -2.517539        -0.269129         0.245488
 O        -3.245768         0.890703         0.642405
 C        -3.224121        -0.896393        -0.901827
 O        -4.603235        -1.421187        -0.802682
 C        -3.416271        -2.366374        -0.812285
 C        -3.344477        -3.137739        -2.068392
 H         2.359611         0.329908         0.403532
 H         2.008601        -0.515319        -1.056364
 H         1.609338         1.044487        -1.070849
 H        -2.563755        -0.999517         1.067439
 H        -3.458735         1.175933        -0.230812
 H        -2.887142        -0.529783        -1.856500
 H        -3.212766        -2.787653         0.074974
 H        -4.211193        -3.843634        -2.006042
 H        -3.533795        -2.702018        -3.028076
 H        -2.407640        -3.671311        -2.330980
