19
Iteration:  2270charge 0 multiplicity 1
 C         1.502342         0.268892        -0.241631
 C         0.155817        -0.028909        -0.182127
 C        -1.053638        -0.256083         0.082084
 C        -2.584008        -0.274680         0.324159
 O        -3.151759         1.050049         0.495825
 C        -3.329663        -0.951013        -0.848999
 O        -4.501901        -1.612403        -0.431688
 C        -3.395580        -2.378793        -1.031576
 C        -3.436512        -3.021948        -2.394820
 H         1.813268         1.197734        -0.779456
 H         1.804459         0.393974         0.779631
 H         2.090184        -0.520748        -0.706527
 H        -2.734630        -1.021742         1.192286
 H        -2.719706         1.462029         1.235721
 H        -3.254917        -0.240565        -1.747537
 H        -2.744901        -3.074148        -0.300597
 H        -4.093729        -3.868944        -2.679095
 H        -3.696682        -2.168121        -3.099955
 H        -2.424270        -3.337397        -2.684670
