19
Iteration:  3311charge 0 multiplicity 1
 C         1.410160         0.059721        -0.453217
 C        -0.008683        -0.101038        -0.095469
 C        -1.209665        -0.216616         0.070780
 C        -2.548639        -0.317163         0.381202
 O        -3.194648         0.881984         0.986017
 C        -3.313660        -0.818678        -0.824736
 O        -4.391736        -1.595274        -0.579661
 C        -3.263536        -2.309939        -1.157090
 C        -3.309801        -2.719686        -2.579657
 H         1.701021         0.816437        -1.126418
 H         1.998566         0.181334         0.492212
 H         1.640604        -1.037686        -0.935275
 H        -2.616751        -1.136659         1.092390
 H        -2.418066         1.283061         1.433480
 H        -3.390786         0.037451        -1.537889
 H        -2.644082        -2.869035        -0.488010
 H        -3.907879        -3.600761        -2.565076
 H        -3.859820        -2.065775        -3.285435
 H        -2.309249        -3.001659        -2.949667
