19
Iteration:  4768
 C         1.381878         0.204601        -0.545654
 C         0.024560        -0.162113        -0.156408
 C        -1.073532        -0.422419         0.303204
 C        -2.556411        -0.612867         0.625115
 O        -3.066705         0.503643         1.296721
 C        -3.259246        -0.782078        -0.750753
 O        -4.538969        -1.360081        -0.837347
 C        -3.391241        -2.068096        -1.360172
 C        -3.343522        -2.526172        -2.756990
 H         2.179513        -0.572842        -0.755116
 H         1.237559         0.727987        -1.546884
 H         1.688778         1.039528         0.089644
 H        -2.829987        -1.431333         1.216350
 H        -2.392243         1.198564         1.380740
 H        -3.118012         0.097440        -1.506477
 H        -3.006850        -2.919846        -0.737065
 H        -4.103548        -3.287449        -2.992217
 H        -3.216436        -1.629119        -3.323213
 H        -2.252515        -2.990490        -2.734004
