19
Iteration:  2036
 C         1.444576         0.234598        -0.452366
 C         0.070106        -0.074297        -0.151514
 C        -1.103439        -0.131226         0.199783
 C        -2.597850        -0.311702         0.376740
 O        -3.176171         0.963262         0.657764
 C        -3.169548        -0.907731        -0.880246
 O        -4.490254        -1.368184        -0.781279
 C        -3.504048        -2.336639        -0.973738
 C        -3.271118        -3.232612        -2.188404
 H         2.038609        -0.365616         0.219334
 H         1.605748        -0.205154        -1.484043
 H         1.606390         1.313129        -0.343892
 H        -2.832666        -0.895819         1.223346
 H        -2.363307         1.469973         0.949946
 H        -3.093670        -0.350021        -1.821803
 H        -3.432700        -2.975007         0.018646
 H        -3.898405        -4.120731        -2.152083
 H        -3.278474        -2.622157        -3.123679
 H        -2.228047        -3.530426        -1.956550
