19
Iteration:  3656charge 0 multiplicity 1
 C         1.508554         0.139207        -0.244928
 C         0.089447        -0.022673        -0.061520
 C        -1.138541        -0.085739        -0.012168
 C        -2.408341        -0.417164         0.388464
 O        -3.090260         0.744337         0.975108
 C        -3.270105        -0.849809        -0.875145
 O        -4.537752        -1.636974        -0.527630
 C        -3.372419        -2.279168        -1.213986
 C        -3.518546        -2.724055        -2.608220
 H         2.011261        -0.219174         0.605803
 H         1.847199        -0.599924        -1.020744
 H         1.787602         1.211945        -0.687068
 H        -2.452987        -1.228819         1.204039
 H        -3.013524         1.489441         0.345150
 H        -3.293912        -0.098836        -1.724844
 H        -2.935437        -2.999867        -0.480343
 H        -4.164968        -3.546475        -2.869514
 H        -3.929833        -1.801243        -3.154485
 H        -2.596338        -2.946036        -3.106062
