19
Iteration:  4699charge 0 multiplicity 1
 C         1.469528        -0.099704        -0.513729
 C         0.104861         0.046587        -0.052834
 C        -1.094041        -0.138762         0.219340
 C        -2.467245        -0.430984         0.545893
 O        -3.226943         0.538214         1.268498
 C        -3.309077        -0.854725        -0.755467
 O        -4.542146        -1.583258        -0.700574
 C        -3.208369        -2.197101        -1.345963
 C        -3.474074        -2.391976        -2.848697
 H         1.639189        -0.902921        -1.156173
 H         1.639238         0.815181        -1.034229
 H         2.283409        -0.027512         0.284967
 H        -2.330572        -1.223727         1.155398
 H        -2.825236         1.427892         1.172333
 H        -3.353300        -0.012235        -1.383798
 H        -2.846507        -3.108684        -0.910166
 H        -3.946320        -3.369460        -2.971479
 H        -3.876211        -1.500594        -3.334218
 H        -2.452609        -2.476074        -3.145553
