19
Iteration:  1917charge 0 multiplicity 1
 C         1.396345        -0.083937        -0.515526
 C         0.049557        -0.047855         0.002925
 C        -1.184532        -0.115013         0.181579
 C        -2.694190        -0.205589         0.348430
 O        -3.278033         1.114572         0.484807
 C        -3.227737        -0.769685        -0.917999
 O        -4.378714        -1.671613        -0.557851
 C        -3.129959        -2.277759        -0.959521
 C        -3.292529        -3.082595        -2.255276
 H         1.548547        -0.895942        -1.131046
 H         1.492306         0.768446        -1.249182
 H         1.967121        -0.000978         0.394527
 H        -2.925051        -0.913971         1.203288
 H        -3.057506         1.381975         1.365598
 H        -3.216432         0.003309        -1.707743
 H        -2.550275        -2.721366        -0.189009
 H        -4.083915        -3.802699        -2.131534
 H        -3.463562        -2.264429        -2.930816
 H        -2.316635        -3.532784        -2.352138
