19
Iteration:  1260charge 0 multiplicity 1
 C         1.497750         0.063387        -0.158228
 C         0.029755         0.121105        -0.123280
 C        -1.151143        -0.050701         0.172041
 C        -2.533255        -0.166436         0.288278
 O        -3.192088         1.197638         0.239509
 C        -3.261710        -0.993227        -0.839111
 O        -4.460194        -1.694617        -0.545011
 C        -3.264889        -2.453345        -0.944588
 C        -3.457980        -3.139297        -2.201833
 H         1.891789         0.618848        -1.062640
 H         2.028117         0.611118         0.783796
 H         1.968832        -0.903870        -0.304459
 H        -2.793773        -0.802840         1.184174
 H        -2.445420         1.774007         0.268572
 H        -3.179729        -0.605557        -1.883581
 H        -2.887152        -3.125174        -0.145269
 H        -4.135760        -3.964971        -2.027869
 H        -3.888292        -2.555586        -2.977704
 H        -2.538658        -3.547870        -2.551261
