19
Iteration:  4972
 C         1.539042         0.165001        -0.060136
 C         0.153664        -0.109824        -0.069646
 C        -1.096631        -0.059330        -0.100310
 C        -2.452472        -0.501034         0.346311
 O        -3.019900         0.367660         1.231539
 C        -3.249033        -0.779815        -0.919723
 O        -4.444623        -1.576561        -0.550059
 C        -3.343778        -2.191335        -1.384164
 C        -3.827591        -2.440201        -2.823452
 H         1.734608         0.611965         0.912086
 H         2.226345        -0.653243        -0.114908
 H         1.654048         1.050859        -0.744543
 H        -2.296131        -1.396702         0.886439
 H        -2.652472         1.274265         1.148306
 H        -3.570162         0.001154        -1.489547
 H        -2.687326        -2.952568        -0.883932
 H        -4.495599        -3.321062        -3.083842
 H        -4.291016        -1.546974        -3.145690
 H        -2.970141        -2.633802        -3.515631
