19
Iteration:  1588charge 0 multiplicity 1
 C         1.480752         0.181219        -0.315014
 C         0.034535         0.007155        -0.211925
 C        -1.157189        -0.123736        -0.010777
 C        -2.596718        -0.192573         0.295846
 O        -3.159160         0.999312         0.775084
 C        -3.112127        -0.911599        -0.945224
 O        -4.522409        -1.434111        -0.730347
 C        -3.439050        -2.380404        -0.921245
 C        -3.339575        -3.273865        -2.101655
 H         1.902724         0.449025         0.616911
 H         2.024002        -0.803484        -0.602701
 H         1.968000         0.778556        -1.041346
 H        -2.773686        -0.887876         1.140063
 H        -2.953320         1.524029        -0.045712
 H        -2.931315        -0.319395        -1.904279
 H        -3.062943        -2.859829         0.013992
 H        -4.049244        -4.120819        -2.212986
 H        -3.516299        -2.775737        -3.126521
 H        -2.267276        -3.576192        -2.307707
