19
Iteration:  4983
 C         1.594432         0.223671        -0.031394
 C         0.186862        -0.131140        -0.077584
 C        -1.039894        -0.111882        -0.086944
 C        -2.395688        -0.544535         0.253952
 O        -3.082843         0.433971         1.265367
 C        -3.379859        -0.810203        -0.874740
 O        -4.423588        -1.639084        -0.557723
 C        -3.418868        -2.137635        -1.432844
 C        -3.804259        -2.402479        -2.782987
 H         1.693368         0.663909         0.945731
 H         2.274990        -0.599675        -0.145067
 H         1.987073         0.903921        -0.860764
 H        -2.371917        -1.469197         0.735061
 H        -2.592759         1.227313         0.980896
 H        -3.354144        -0.104075        -1.606850
 H        -2.872162        -2.956467        -0.880247
 H        -4.337365        -3.409788        -2.841197
 H        -4.463109        -1.634746        -3.137520
 H        -2.879265        -2.275230        -3.381364
