19
Iteration:   451charge 0 multiplicity 1
 C         1.452623        -0.118361        -0.115695
 C        -0.001908        -0.034425         0.084744
 C        -1.180678        -0.007365         0.037570
 C        -2.637316         0.026934         0.106710
 O        -3.265746         1.264379         0.010385
 C        -3.331615        -0.870077        -0.876564
 O        -4.557677        -1.831691        -0.477273
 C        -3.275366        -2.343236        -0.801007
 C        -2.965924        -3.150666        -1.978837
 H         2.010427        -0.749145         0.618783
 H         1.514982        -0.791409        -0.988410
 H         1.986128         0.842782        -0.115852
 H        -2.982372        -0.233332         1.121928
 H        -3.192061         1.662200        -0.839323
 H        -3.535578        -0.417699        -1.899288
 H        -2.684444        -2.693529         0.026789
 H        -3.463362        -4.187044        -1.961080
 H        -3.446083        -2.847018        -2.941491
 H        -1.869681        -3.416894        -2.318139
