19
Iteration:  3291
 C         1.437022        -0.005325        -0.425438
 C        -0.041772         0.005203        -0.098532
 C        -1.206910        -0.208011         0.100615
 C        -2.600737        -0.330368         0.489960
 O        -3.026215         0.917949         0.932759
 C        -3.376711        -0.767147        -0.815375
 O        -4.507175        -1.763428        -0.636787
 C        -3.241796        -2.171578        -1.147627
 C        -3.299570        -2.778754        -2.628677
 H         1.665277         0.839770        -0.933155
 H         2.150838         0.010956         0.445104
 H         1.696248        -0.801119        -1.285909
 H        -2.706799        -1.031612         1.237431
 H        -2.353206         1.224834         1.548828
 H        -3.563892        -0.018691        -1.576103
 H        -2.578051        -2.729370        -0.481181
 H        -3.773413        -3.685717        -2.473776
 H        -3.858755        -2.172432        -3.291581
 H        -2.293363        -2.926604        -2.893378
