19
Iteration:  4024charge 0 multiplicity 1
 C         1.493020         0.275671        -0.275306
 C         0.168538        -0.194683        -0.022818
 C        -1.011660        -0.337065         0.313848
 C        -2.523853        -0.482812         0.426649
 O        -3.094108         0.906036         0.751121
 C        -3.384397        -0.915394        -0.811745
 O        -4.414666        -1.724310        -0.477906
 C        -3.369492        -2.276136        -1.337365
 C        -3.614827        -2.509574        -2.756988
 H         1.884266         0.064188        -1.339396
 H         1.636984         1.341955        -0.213447
 H         2.004637        -0.220266         0.449780
 H        -2.805602        -1.237709         1.241364
 H        -2.456575         1.075067         1.478756
 H        -3.702754         0.018851        -1.376427
 H        -2.607708        -2.933136        -0.818291
 H        -4.484175        -3.076766        -2.935388
 H        -3.689671        -1.539576        -3.298053
 H        -2.831521        -3.021708        -3.262430
