19
Iteration:  3162charge 0 multiplicity 1
 C         1.400086        -0.113243        -0.437307
 C         0.053551         0.044806         0.059986
 C        -1.132859        -0.037128         0.238049
 C        -2.533013        -0.336930         0.449251
 O        -3.133312         1.042900         0.698803
 C        -3.334873        -0.833453        -0.749605
 O        -4.338422        -1.886178        -0.479243
 C        -3.267694        -2.253421        -1.251630
 C        -3.469545        -2.706224        -2.705410
 H         2.016603         0.430453         0.413100
 H         1.754070        -1.158513        -0.626506
 H         1.568268         0.342655        -1.325962
 H        -2.826109        -1.114554         1.145421
 H        -2.948911         1.244437         1.643681
 H        -3.656642        -0.057522        -1.402192
 H        -2.454319        -2.710594        -0.742116
 H        -4.107810        -3.636488        -2.697557
 H        -4.001706        -1.934431        -3.286830
 H        -2.486876        -2.973319        -3.141984
