19
Iteration:  1152charge 0 multiplicity 1
 C         1.416262        -0.162940        -0.233476
 C        -0.078691         0.018499        -0.192041
 C        -1.231226        -0.045018         0.092267
 C        -2.607689        -0.053272         0.265264
 O        -3.266940         1.281587         0.432847
 C        -3.273674        -0.899055        -0.825196
 O        -4.451891        -1.622416        -0.681648
 C        -3.234267        -2.446370        -0.852789
 C        -3.102822        -3.192260        -2.119318
 H         1.935360         0.790182        -0.026585
 H         1.799647        -0.848888         0.446863
 H         1.641607        -0.466045        -1.244107
 H        -2.776601        -0.682663         1.143099
 H        -2.748794         1.762810        -0.189268
 H        -3.321329        -0.411499        -1.814485
 H        -2.606967        -2.802389         0.007726
 H        -3.469783        -4.241578        -1.980246
 H        -3.728148        -2.911627        -2.958690
 H        -1.998612        -3.239549        -2.302698
