19
Iteration:   377
 C         1.407480         0.070110        -0.018950
 C        -0.066715        -0.034678        -0.215675
 C        -1.235939        -0.004766         0.201682
 C        -2.756339         0.035251         0.240451
 O        -3.201100         1.395198        -0.037373
 C        -3.165751        -0.934836        -0.812028
 O        -4.441220        -1.737393        -0.611394
 C        -3.073988        -2.438785        -0.853695
 C        -3.276102        -3.417322        -2.025638
 H         1.681805        -1.034783         0.003080
 H         1.947675         0.438356        -0.871542
 H         1.755715         0.244920         1.100356
 H        -3.009206        -0.233334         1.283674
 H        -2.261692         1.658375         0.061709
 H        -3.106931        -0.500092        -1.809592
 H        -2.577444        -2.878612         0.026878
 H        -3.758989        -4.365631        -1.646894
 H        -3.981400        -3.028944        -2.771818
 H        -2.519296        -3.989862        -2.490652
