19
Iteration:   591charge 0 multiplicity 1
 C         1.391657        -0.115071        -0.224210
 C        -0.052360        -0.043342        -0.161738
 C        -1.250444         0.108442         0.199799
 C        -2.738823        -0.037203         0.283002
 O        -3.286985         1.239194         0.064431
 C        -3.064990        -0.931890        -0.883545
 O        -4.412674        -1.581638        -0.760559
 C        -3.342980        -2.417137        -0.740080
 C        -3.037822        -3.314707        -1.909302
 H         1.904365         0.808980         0.088972
 H         1.780642        -1.035746         0.341027
 H         1.757725        -0.161415        -1.230366
 H        -3.129978        -0.583271         1.192371
 H        -3.268082         1.651037         0.903583
 H        -2.679031        -0.421850        -1.814123
 H        -3.053023        -2.875202         0.258914
 H        -3.761644        -4.122886        -2.004261
 H        -3.253624        -2.817328        -2.833889
 H        -2.070044        -3.819558        -1.834590
