19
Iteration:  3688charge 0 multiplicity 1
 C         1.545345         0.190053        -0.348998
 C         0.094197        -0.174153        -0.208923
 C        -1.107247        -0.302763         0.098502
 C        -2.495784        -0.329424         0.439510
 O        -3.157236         0.786006         1.025327
 C        -3.341643        -0.794094        -0.886201
 O        -4.586822        -1.624812        -0.527646
 C        -3.353400        -2.201074        -1.207221
 C        -3.353252        -2.752908        -2.656811
 H         1.934936         0.324141         0.628888
 H         2.043988        -0.700640        -0.803518
 H         1.922925         1.262413        -0.785886
 H        -2.717320        -1.195031         1.155521
 H        -2.762928         1.638757         0.754660
 H        -3.280118        -0.028215        -1.727638
 H        -2.961745        -2.974732        -0.464772
 H        -3.787531        -3.757866        -2.666525
 H        -4.112933        -2.013344        -3.073728
 H        -2.347904        -2.659898        -3.002274
