19
Iteration:  1508
 C         1.447508         0.214137        -0.395354
 C         0.023492         0.180699        -0.156898
 C        -1.077723        -0.027885         0.254702
 C        -2.513669        -0.365818         0.469550
 O        -3.134242         1.006843         0.502627
 C        -3.021090        -1.048359        -0.798815
 O        -4.387739        -1.370921        -0.848304
 C        -3.493903        -2.477414        -0.881195
 C        -3.568902        -3.235213        -2.187323
 H         2.053566        -0.370084         0.322427
 H         1.862593        -0.150395        -1.324604
 H         1.748385         1.276807        -0.264261
 H        -2.623366        -0.984700         1.367974
 H        -3.602369         1.317288        -0.304207
 H        -2.623115        -0.552293        -1.680632
 H        -3.301304        -3.014320        -0.029238
 H        -4.398175        -3.991687        -2.054094
 H        -3.750125        -2.586314        -3.028726
 H        -2.665939        -3.871538        -2.410508
