19
Iteration:  1768
 C         1.456719        -0.069714        -0.262319
 C         0.056220        -0.034232        -0.051119
 C        -1.163541        -0.135621         0.064315
 C        -2.590643        -0.075456         0.286303
 O        -3.166711         1.231858         0.483060
 C        -3.483808        -0.832725        -0.835591
 O        -4.351651        -1.936229        -0.347347
 C        -3.191287        -2.248789        -1.073403
 C        -3.328320        -3.022628        -2.394582
 H         1.611243         0.428824        -1.245232
 H         1.984286         0.318366         0.530005
 H         1.717704        -1.099763        -0.437049
 H        -2.945595        -0.685298         1.058478
 H        -2.686442         1.795068        -0.121204
 H        -4.032045        -0.356264        -1.604943
 H        -2.409169        -2.625812        -0.290562
 H        -3.857957        -3.954520        -2.301193
 H        -3.897405        -2.372988        -3.008936
 H        -2.360854        -3.032922        -2.821669
