19
Iteration:   259
 C         1.372700         0.172802        -0.030845
 C        -0.016670         0.150350        -0.218744
 C        -1.187137        -0.051595         0.135830
 C        -2.604431        -0.191080         0.221353
 O        -3.132815         1.240817        -0.019776
 C        -3.034884        -1.040408        -0.908417
 O        -4.424478        -1.509198        -0.830163
 C        -3.335739        -2.524569        -0.734859
 C        -3.373779        -3.418341        -1.810270
 H         2.009886         0.269352        -0.871246
 H         1.438620         1.043465         0.599483
 H         1.606630        -0.787025         0.412111
 H        -2.990540        -0.596814         1.157943
 H        -2.973325         1.899343         0.719894
 H        -2.774310        -0.641358        -1.910209
 H        -3.000020        -2.780753         0.359441
 H        -4.117639        -4.212456        -1.480233
 H        -3.780759        -2.954424        -2.734646
 H        -2.447990        -3.981747        -1.817319
