19
Iteration:   524charge 0 multiplicity 1
 C         1.377976        -0.174048        -0.176330
 C        -0.096058        -0.086078        -0.126762
 C        -1.253415         0.017791         0.148241
 C        -2.732740         0.009241         0.173823
 O        -3.318559         1.244425         0.149648
 C        -3.271158        -0.858908        -0.971273
 O        -4.441941        -1.635407        -0.656598
 C        -3.095258        -2.263037        -0.765417
 C        -2.957341        -3.353557        -1.894526
 H         1.902114         0.111435         0.736480
 H         1.705389        -1.268455        -0.242232
 H         1.739083         0.511610        -0.919351
 H        -3.129684        -0.546871         1.065802
 H        -2.630721         1.954821         0.063361
 H        -3.356711        -0.439538        -1.989447
 H        -2.934113        -2.530455         0.334950
 H        -3.434289        -4.342210        -1.729228
 H        -3.470190        -3.016759        -2.784303
 H        -2.005376        -3.544535        -2.372047
