19
Iteration:  2351charge 0 multiplicity 1
 C         1.482381        -0.016369        -0.515855
 C         0.079435         0.113883         0.029142
 C        -1.059555         0.002814         0.307720
 C        -2.534804        -0.255800         0.349927
 O        -3.293095         0.967295         0.697649
 C        -3.328780        -0.857537        -0.879837
 O        -4.473678        -1.604554        -0.674561
 C        -3.320585        -2.380781        -1.078038
 C        -3.308768        -3.059541        -2.341828
 H         1.255247        -0.078245        -1.608170
 H         2.165660         0.860426        -0.324592
 H         1.930363        -0.965303        -0.158364
 H        -2.599217        -1.066658         1.051705
 H        -2.692208         1.734716         0.752115
 H        -3.294080        -0.145421        -1.695609
 H        -2.753104        -2.869800        -0.210294
 H        -3.895336        -3.970303        -2.159535
 H        -3.823136        -2.436197        -3.087562
 H        -2.253806        -3.306713        -2.654232
