19
Iteration:   163charge 0 multiplicity 1
 C         1.416233         0.265008        -0.050499
 C        -0.012746         0.218040        -0.189037
 C        -1.090734        -0.170416         0.159091
 C        -2.617882        -0.142676         0.214508
 O        -3.183590         1.191237         0.109765
 C        -3.045922        -1.086720        -0.938693
 O        -4.407609        -1.413771        -0.980408
 C        -3.469292        -2.515868        -0.614543
 C        -3.351659        -3.531112        -1.778304
 H         1.940053         1.253428        -0.204129
 H         1.727274        -0.174515         0.996993
 H         1.818863        -0.315237        -0.895913
 H        -2.843812        -0.468841         1.255070
 H        -2.740369         1.680193        -0.664932
 H        -2.727805        -0.836806        -1.937943
 H        -3.506366        -2.614519         0.485731
 H        -4.265054        -4.144210        -1.619651
 H        -3.540436        -2.986871        -2.716339
 H        -2.448204        -4.137061        -1.704257
