19
Iteration:  2512charge 0 multiplicity 1
 C         1.365527         0.040687        -0.492609
 C        -0.017825        -0.201418        -0.122213
 C        -1.170705        -0.247238         0.223391
 C        -2.610119        -0.144862         0.510797
 O        -3.302346         1.079696         0.708153
 C        -3.151450        -0.827570        -0.764102
 O        -4.428166        -1.618373        -0.637577
 C        -3.143494        -2.321599        -1.039626
 C        -3.287871        -2.953973        -2.470767
 H         1.992232        -0.922435        -0.215549
 H         1.503298         0.202275        -1.537710
 H         1.826913         0.863576        -0.005987
 H        -2.959438        -0.796961         1.352251
 H        -2.704274         1.708254         0.219067
 H        -3.331810        -0.091559        -1.537378
 H        -2.792582        -2.998194        -0.312349
 H        -3.645648        -3.978357        -2.348573
 H        -3.833730        -2.415291        -3.260850
 H        -2.289126        -2.964925        -2.887144
