19
Iteration:    36charge 0 multiplicity 1
 C         1.430431         0.154506        -0.019900
 C         0.020366         0.133483        -0.161658
 C        -1.195943         0.010409         0.111502
 C        -2.577650         0.099154         0.193204
 O        -3.165280         1.303439         0.056352
 C        -3.069050        -1.031731        -0.854876
 O        -4.387358        -1.578571        -0.890572
 C        -3.446968        -2.582346        -0.710801
 C        -3.392666        -3.638204        -1.810159
 H         1.715429         0.100156         0.990334
 H         1.830034        -0.553404        -0.614320
 H         1.886374         1.131607        -0.351830
 H        -2.963051        -0.364713         1.106066
 H        -2.571760         1.963927        -0.258662
 H        -2.767784        -0.769937        -1.915974
 H        -3.417505        -3.073462         0.350753
 H        -4.123107        -4.383359        -1.556757
 H        -3.700672        -3.151215        -2.760619
 H        -2.377163        -4.108173        -1.914629
