19
Iteration:  3576charge 0 multiplicity 1
 C         1.574705         0.258694        -0.252948
 C         0.129180        -0.050236         0.002586
 C        -1.060165        -0.182831         0.077353
 C        -2.458322        -0.430769         0.355359
 O        -3.186338         0.667506         0.830858
 C        -3.144228        -0.821708        -0.857788
 O        -4.403290        -1.563903        -0.532290
 C        -3.388247        -2.284075        -1.223175
 C        -3.758532        -2.778196        -2.593909
 H         2.233304        -0.534192         0.243294
 H         1.861110         0.493067        -1.295110
 H         1.805855         1.269317         0.365986
 H        -2.713192        -1.141568         1.170361
 H        -2.866181         1.584293         0.720790
 H        -3.088735        -0.065659        -1.680733
 H        -2.723274        -3.013906        -0.649173
 H        -4.629758        -3.489412        -2.428412
 H        -4.208435        -2.004692        -3.219614
 H        -3.072627        -3.184088        -3.360220
