19
Iteration:  3931charge 0 multiplicity 1
 C         1.539817         0.030127        -0.447360
 C         0.011578        -0.137329        -0.206904
 C        -1.166657        -0.239911         0.070450
 C        -2.618142        -0.386036         0.579414
 O        -3.227512         0.717614         1.039172
 C        -3.297664        -0.742089        -0.715204
 O        -4.453183        -1.582599        -0.654251
 C        -3.287835        -2.126558        -1.215406
 C        -3.279446        -2.667732        -2.683674
 H         1.742257         0.490727        -1.283077
 H         2.048122         0.583230         0.340888
 H         1.764829        -1.077086        -0.476635
 H        -2.845313        -1.115021         1.311355
 H        -2.676591         1.496774         1.172231
 H        -3.391107         0.018536        -1.426440
 H        -2.733799        -2.808988        -0.592181
 H        -3.376863        -3.781814        -2.567602
 H        -4.152898        -2.227057        -3.130472
 H        -2.421533        -2.398238        -3.348223
