19
Iteration:   586charge 0 multiplicity 1
 C         1.373749        -0.108211        -0.243561
 C        -0.068541        -0.046714        -0.088160
 C        -1.223974         0.146181         0.168643
 C        -2.693583        -0.079763         0.251267
 O        -3.282198         1.251394         0.076357
 C        -3.078669        -0.939491        -0.893610
 O        -4.447051        -1.579217        -0.751836
 C        -3.307020        -2.421688        -0.757760
 C        -3.028416        -3.322405        -1.918497
 H         1.887271         0.757828         0.215671
 H         1.640403        -1.047986         0.219282
 H         1.776636        -0.270970        -1.306984
 H        -3.171503        -0.423842         1.217830
 H        -3.230291         1.697850         0.976716
 H        -2.885198        -0.480229        -1.851412
 H        -3.147118        -2.956422         0.207090
 H        -3.748046        -4.181806        -1.892094
 H        -3.223141        -2.730194        -2.854624
 H        -2.027896        -3.721127        -1.648194
