19
Iteration:   215charge 0 multiplicity 1
 C         1.531611         0.244088        -0.203508
 C         0.191568         0.006861         0.271387
 C        -1.070529         0.031419         0.189618
 C        -2.569693        -0.115493         0.024742
 O        -3.312205         1.135213         0.038919
 C        -3.133173        -1.036045        -1.024035
 O        -4.601785        -1.448053        -0.826484
 C        -3.423924        -2.428571        -0.792051
 C        -3.334160        -3.579059        -1.784091
 H         1.667123         1.001549        -0.941437
 H         1.955858         0.780348         0.625463
 H         2.063742        -0.580540        -0.536881
 H        -2.610713        -0.535753         1.059669
 H        -2.674468         1.897613         0.235037
 H        -2.840183        -0.737484        -2.077969
 H        -3.446073        -2.739976         0.391276
 H        -4.195594        -4.251164        -1.526393
 H        -3.248087        -3.143380        -2.794796
 H        -2.467562        -4.038221        -1.322653
