19
Iteration:   918
 C         1.573231         0.133587        -0.055681
 C         0.069366         0.189517        -0.077805
 C        -1.126153        -0.071474         0.103059
 C        -2.636580        -0.110574         0.248915
 O        -3.072780         1.253098         0.331289
 C        -3.204198        -0.980545        -0.964396
 O        -4.561796        -1.649096        -0.787523
 C        -3.351881        -2.463203        -0.841653
 C        -3.386888        -3.391394        -2.039629
 H         2.036403        -0.831016         0.099339
 H         2.042489         0.514148        -1.094175
 H         1.942403         0.927247         0.592465
 H        -2.874729        -0.780695         1.172328
 H        -3.880710         1.397147        -0.180445
 H        -3.032796        -0.448360        -1.942912
 H        -3.229622        -3.079064         0.102880
 H        -4.169217        -4.327463        -2.021899
 H        -3.727680        -2.846155        -2.977420
 H        -2.301491        -3.730057        -2.213090
