19
Iteration:  1963
 C         1.381597         0.102731        -0.525288
 C        -0.063381        -0.163391        -0.203024
 C        -1.202727        -0.139800         0.326025
 C        -2.582316        -0.170290         0.430546
 O        -3.143709         1.131315         0.558830
 C        -3.158487        -0.884167        -0.804270
 O        -4.397626        -1.449158        -0.739455
 C        -3.383079        -2.434348        -0.946095
 C        -3.196412        -3.161071        -2.258722
 H         1.856859        -0.818174        -0.619508
 H         1.454923         0.569876        -1.505648
 H         1.706202         0.718315         0.288658
 H        -2.918378        -0.945884         1.207743
 H        -3.423034         1.386653         1.456615
 H        -2.949729        -0.476229        -1.761607
 H        -3.189439        -3.095998        -0.201359
 H        -3.830464        -4.038538        -2.167639
 H        -3.537536        -2.509763        -3.012123
 H        -2.155892        -3.373223        -2.308929
