19
Iteration:  1568charge 0 multiplicity 1
 C         1.536693         0.162606        -0.341358
 C         0.131492        -0.000429        -0.084499
 C        -1.052724        -0.081615         0.045241
 C        -2.518422        -0.307849         0.205742
 O        -3.224847         0.904834         0.679097
 C        -3.267735        -0.893320        -0.913536
 O        -4.549819        -1.428908        -0.805626
 C        -3.421060        -2.347612        -0.807672
 C        -3.334748        -3.135842        -2.081078
 H         2.171248         0.491308         0.468617
 H         1.953199        -0.612446        -1.041678
 H         1.523712         1.025319        -1.021357
 H        -2.608896        -0.781026         1.217020
 H        -3.423829         1.286865        -0.238114
 H        -2.855761        -0.442337        -1.865752
 H        -3.203355        -2.923315         0.208089
 H        -4.126206        -3.894115        -1.951791
 H        -3.612805        -2.657829        -3.072490
 H        -2.416306        -3.736434        -2.228743
