19
Iteration:  4170charge 0 multiplicity 1
 C         1.511214         0.245550        -0.161348
 C         0.108256        -0.005471        -0.193312
 C        -1.024403        -0.150802         0.181298
 C        -2.488308        -0.480437         0.303308
 O        -3.060342         0.592099         1.078570
 C        -3.272300        -0.806045        -0.903599
 O        -4.445985        -1.497114        -0.639340
 C        -3.444609        -2.288212        -1.296535
 C        -3.677419        -2.670384        -2.690442
 H         1.982008        -0.780734         0.260418
 H         2.000077         0.408603        -1.120815
 H         1.741912         1.048336         0.538012
 H        -2.624943        -1.347982         1.005657
 H        -2.315800         0.951769         1.571449
 H        -3.086619        -0.080322        -1.664686
 H        -3.053035        -3.071179        -0.645911
 H        -4.210377        -3.648768        -2.685993
 H        -4.274730        -2.048161        -3.286409
 H        -2.714445        -2.970246        -3.142514
