19
Iteration:  1642charge 0 multiplicity 1
 C         1.493198         0.095214        -0.343829
 C         0.023720         0.040273        -0.125841
 C        -1.140577        -0.181160         0.040439
 C        -2.577966        -0.227342         0.315587
 O        -3.148302         1.097905         0.531308
 C        -3.310155        -0.887351        -0.878198
 O        -4.524443        -1.615705        -0.654427
 C        -3.283503        -2.347567        -0.943612
 C        -3.321453        -3.089022        -2.161363
 H         1.853138         0.983568         0.151877
 H         2.005855        -0.864758         0.077193
 H         1.876934         0.286033        -1.351678
 H        -2.844831        -0.847965         1.153959
 H        -2.606429         1.317521         1.312517
 H        -3.250653        -0.253983        -1.810731
 H        -3.063086        -2.983736        -0.172652
 H        -3.822909        -4.085387        -2.079478
 H        -3.783440        -2.449493        -2.987627
 H        -2.314577        -3.530074        -2.447866
