19
Iteration:  3269charge 0 multiplicity 1
 C         1.418598         0.032337        -0.442279
 C         0.060925        -0.050599        -0.138916
 C        -1.111159        -0.270704         0.167985
 C        -2.621034        -0.351055         0.456468
 O        -3.045337         1.041286         0.902975
 C        -3.489662        -0.797645        -0.739775
 O        -4.545508        -1.808619        -0.600753
 C        -3.232056        -2.148120        -1.216487
 C        -3.244096        -2.794302        -2.638928
 H         1.794245         0.925649        -0.657727
 H         1.964917        -0.276512         0.504563
 H         1.740232        -0.590467        -1.387994
 H        -2.858280        -1.027399         1.230712
 H        -2.329028         1.296820         1.532080
 H        -3.794143        -0.028575        -1.448817
 H        -2.845501        -2.865369        -0.531476
 H        -3.627074        -3.758298        -2.643972
 H        -3.841405        -2.073565        -3.125490
 H        -2.241543        -2.653843        -2.954780
