19
Iteration:  1262
 C         1.492648         0.068691        -0.156393
 C         0.048739         0.129652        -0.129553
 C        -1.143121        -0.063071         0.192350
 C        -2.554141        -0.164421         0.283769
 O        -3.188200         1.192342         0.230451
 C        -3.252196        -0.989975        -0.861441
 O        -4.457788        -1.693341        -0.542355
 C        -3.281574        -2.468751        -0.940364
 C        -3.443588        -3.132497        -2.196759
 H         1.976441         0.604542        -1.076223
 H         1.943872         0.644511         0.737880
 H         1.964226        -0.920801        -0.302438
 H        -2.702194        -0.805384         1.230493
 H        -2.512776         1.871981         0.419750
 H        -3.222571        -0.557514        -1.894008
 H        -2.897979        -3.171013        -0.107828
 H        -4.210304        -3.916514        -2.026408
 H        -3.985050        -2.560753        -2.976280
 H        -2.531827        -3.604970        -2.599679
