19
Iteration:   699charge 0 multiplicity 1
 C         1.483722         0.230664        -0.102223
 C         0.013309         0.126124        -0.036290
 C        -1.168272        -0.118604         0.148633
 C        -2.637452        -0.183428         0.222281
 O        -3.108346         1.156896         0.174315
 C        -3.165676        -0.959887        -0.942855
 O        -4.550202        -1.523149        -0.869010
 C        -3.353164        -2.425550        -0.783254
 C        -3.325935        -3.429659        -1.929117
 H         1.750241         0.942157        -0.877735
 H         2.056262         0.609822         0.866570
 H         1.744578        -0.831196        -0.221716
 H        -2.865826        -0.710217         1.217086
 H        -2.362159         1.751446         0.151243
 H        -2.731770        -0.440443        -1.869799
 H        -3.275603        -3.088966         0.193194
 H        -3.974343        -4.237828        -1.520426
 H        -3.679205        -2.968009        -2.853246
 H        -2.399825        -3.913681        -2.198145
