19
Iteration:  4673
 C         1.421220        -0.491505        -0.029684
 C         0.083396        -0.015835        -0.242969
 C        -1.044204         0.507992        -0.059616
 C        -2.433574         0.982233        -0.239653
 O        -3.043958         1.735196         0.825029
 C        -3.375464        -0.202442        -0.708072
 C        -4.633691         0.355073        -1.468298
 C        -4.235110        -0.795000        -2.496532
 O        -2.884315        -0.839822        -1.871328
 H         1.476300        -0.822084         1.054447
 H         1.613696        -1.452930        -0.596313
 H         2.295583         0.203364        -0.071880
 H        -2.307464         1.624207        -1.152555
 H        -2.321476         2.028060         1.345557
 H        -3.529544        -0.860211         0.227718
 H        -5.488465         0.536177        -0.772027
 H        -4.401560         1.341674        -1.855289
 H        -4.799129        -1.751755        -2.440021
 H        -4.171485        -0.485281        -3.529743
