19
Iteration:  3275
 C         1.532815        -0.280429         0.169107
 C         0.160388         0.092132        -0.074812
 C        -1.027038         0.340781         0.074930
 C        -2.390250         0.730636        -0.184408
 O        -3.044591         0.969831         1.047709
 C        -3.286603        -0.288129        -0.906701
 C        -4.695673         0.117069        -1.237841
 C        -4.283110        -0.019587        -2.768809
 O        -2.962204        -0.411197        -2.343822
 H         1.902370        -0.882104        -0.667646
 H         2.239580         0.625784         0.109001
 H         1.412962        -0.811305         1.215502
 H        -2.336581         1.698394        -0.718463
 H        -3.663191         1.665164         0.975097
 H        -3.233688        -1.266289        -0.243642
 H        -5.382055        -0.636894        -0.896826
 H        -4.907263         1.049236        -0.755870
 H        -4.782835        -0.796993        -3.252307
 H        -4.352790         0.867468        -3.358515
