19
Iteration:  3787charge 0 multiplicity 1
 C         1.504251        -0.396781         0.445008
 C         0.183975         0.143713         0.334683
 C        -0.881145         0.474962        -0.117052
 C        -2.268469         0.882831        -0.534794
 O        -2.805725         1.350263         0.744300
 C        -3.171735        -0.251294        -1.030751
 C        -4.664225        -0.104370        -0.956909
 C        -4.633354        -0.362000        -2.548960
 O        -3.209397        -0.442829        -2.500810
 H         2.186208         0.389839         0.893676
 H         1.562003        -1.245221         1.163778
 H         1.817605        -0.682893        -0.498263
 H        -2.146012         1.772501        -1.201029
 H        -3.702985         1.079523         0.644850
 H        -2.835060        -1.156997        -0.520086
 H        -5.179184        -0.886155        -0.334668
 H        -5.150341         0.866040        -0.809166
 H        -5.227253        -1.187406        -2.915300
 H        -4.996575         0.665896        -2.902904
