19
Iteration:   929
 C         1.479802         0.053151         0.020636
 C        -0.009688         0.254987         0.035907
 C        -1.231323         0.270940        -0.012779
 C        -2.641501         0.331640         0.152632
 O        -3.079913        -0.472784         1.364157
 C        -3.367611        -0.304915        -1.125555
 C        -4.706405         0.392921        -1.560382
 C        -3.814717         0.984075        -2.717337
 O        -2.810949        -0.000359        -2.421018
 H         2.049976         0.870509        -0.314439
 H         1.675133        -0.229563         1.112143
 H         1.748822        -0.852948        -0.509963
 H        -2.965992         1.379148         0.316649
 H        -2.195446        -0.912927         1.496773
 H        -3.294462        -1.366798        -1.133082
 H        -5.389758        -0.393316        -1.807330
 H        -5.237226         1.084534        -0.930619
 H        -4.309106         0.939792        -3.662263
 H        -3.427334         1.996140        -2.642497
