19
Iteration:  4256charge 0 multiplicity 1
 C         1.283121        -0.556571         0.323698
 C         0.145208         0.267357        -0.083593
 C        -1.013157         0.572177        -0.426445
 C        -2.375566         0.996570        -0.300493
 O        -2.816384         1.470861         0.991804
 C        -3.242842        -0.195364        -0.825362
 C        -4.671631         0.181333        -1.325347
 C        -4.417885        -0.725122        -2.505542
 O        -2.983377        -0.629069        -2.222583
 H         1.345213        -0.565290         1.421804
 H         1.118506        -1.594008         0.036196
 H         2.252211        -0.194118         0.106924
 H        -2.419187         1.737920        -1.123854
 H        -1.985710         1.598210         1.434472
 H        -3.371654        -1.000235         0.024488
 H        -5.559634        -0.128316        -0.767990
 H        -4.579894         1.275504        -1.424762
 H        -4.825292        -1.773450        -2.252611
 H        -4.750438        -0.526100        -3.528810
