19
Iteration:  4293charge 0 multiplicity 1
 C         1.417030        -0.570006         0.294323
 C         0.147676         0.155663         0.117422
 C        -0.877362         0.708340        -0.198002
 C        -2.284198         1.081684        -0.514275
 O        -2.948322         1.432481         0.743227
 C        -3.170827        -0.129180        -0.899085
 C        -4.661908         0.153173        -1.168834
 C        -4.527356        -0.672770        -2.407388
 O        -3.068160        -0.694456        -2.230691
 H         1.189878        -1.167639         1.262076
 H         1.575290        -1.288855        -0.548810
 H         2.360881         0.008436         0.327374
 H        -2.438091         1.955869        -1.141489
 H        -3.089674         0.614882         1.177295
 H        -2.949315        -0.801492         0.021719
 H        -5.404039        -0.266636        -0.467104
 H        -4.994423         1.183055        -1.410904
 H        -4.868429        -1.698556        -2.174551
 H        -4.719378        -0.284438        -3.421397
