19
Iteration:  2639charge 0 multiplicity 1
 C         1.483552        -0.369766         0.208586
 C         0.176333         0.200265         0.203319
 C        -0.991262         0.453165        -0.055519
 C        -2.410853         0.641498        -0.220520
 O        -3.099213         0.502575         1.137852
 C        -3.204082        -0.285147        -1.112490
 C        -4.686234         0.086514        -1.265801
 C        -4.315515         0.275704        -2.677446
 O        -2.967900        -0.149307        -2.478997
 H         1.390584        -1.295019        -0.315031
 H         2.307265         0.179793        -0.078963
 H         1.726261        -0.561915         1.347935
 H        -2.638062         1.662385        -0.605910
 H        -2.675110         1.256486         1.632136
 H        -3.186946        -1.342709        -0.737901
 H        -5.375192        -0.742213        -0.979573
 H        -4.897884         1.003047        -0.641877
 H        -4.919344        -0.360119        -3.381746
 H        -4.371067         1.281434        -3.221152
