19
Iteration:   287
 C         1.419163        -0.009456        -0.271889
 C        -0.003888         0.073770         0.130241
 C        -1.217544         0.126278         0.307584
 C        -2.658979         0.167636         0.319171
 O        -3.393484        -0.945266         0.966859
 C        -3.010938        -0.025196        -1.174499
 C        -4.519204         0.068492        -1.492433
 C        -4.038378         0.999901        -2.631400
 O        -2.667703         1.028397        -2.201548
 H         2.158574         0.636615         0.450676
 H         1.807559        -1.040723        -0.380541
 H         1.514808         0.429756        -1.247824
 H        -3.097953         0.957847         0.983464
 H        -3.176099        -1.796311         0.582393
 H        -2.465769        -0.933276        -1.516445
 H        -5.103739        -0.738767        -1.849584
 H        -4.798069         0.572399        -0.648439
 H        -4.084543         0.549237        -3.608797
 H        -4.514688         1.975570        -2.707595
