19
Iteration:  3007
 C         1.479475        -0.337330        -0.024493
 C         0.081936         0.081798         0.159407
 C        -1.100269         0.399287        -0.033847
 C        -2.514736         0.800771        -0.070955
 O        -3.193598         0.832142         1.170682
 C        -3.194935        -0.197325        -0.949720
 C        -4.597693         0.079583        -1.292795
 C        -4.218864        -0.179981        -2.744972
 O        -2.854433        -0.128183        -2.414730
 H         1.890851         0.226845        -0.982846
 H         2.065222         0.019605         0.930932
 H         1.596472        -1.451466        -0.087389
 H        -2.554635         1.782530        -0.483273
 H        -2.503005         0.504337         1.762528
 H        -2.846751        -1.228834        -0.604499
 H        -5.264951        -0.553943        -0.726559
 H        -5.030457         1.052064        -1.199101
 H        -4.439584        -1.140595        -3.164473
 H        -4.461063         0.539312        -3.521763
