19
Iteration:  4679
 C         1.419293        -0.495807        -0.012564
 C         0.085820        -0.018761        -0.269413
 C        -1.017678         0.456431        -0.106163
 C        -2.444827         1.018006        -0.185752
 O        -3.035667         1.754035         0.822650
 C        -3.377081        -0.139161        -0.695021
 C        -4.692934         0.355837        -1.472135
 C        -4.227211        -0.815257        -2.461191
 O        -2.856659        -0.853800        -1.891857
 H         1.523473        -1.019449         0.963607
 H         1.491413        -1.420655        -0.565329
 H         2.147247         0.331490         0.021654
 H        -2.293654         1.644260        -1.078012
 H        -2.286186         1.966482         1.466514
 H        -3.621722        -0.758861         0.151787
 H        -5.592318         0.217004        -0.865596
 H        -4.421854         1.306274        -1.980005
 H        -4.616299        -1.852188        -2.547739
 H        -4.091072        -0.377851        -3.500816
