19
Iteration:  3926
 C         1.403040        -0.526609         0.228994
 C         0.187322         0.259516         0.009097
 C        -0.987529         0.465436        -0.228771
 C        -2.348751         0.981358        -0.297779
 O        -3.028284         1.401640         0.958993
 C        -3.217881        -0.182996        -0.877541
 C        -4.683858         0.119446        -1.207074
 C        -4.366299        -0.622881        -2.565448
 O        -2.978789        -0.570371        -2.282572
 H         1.045624        -1.507836         0.641340
 H         1.924543        -0.867762        -0.666110
 H         2.232348        -0.074153         0.905063
 H        -2.423734         1.739174        -1.125086
 H        -2.635608         2.257907         1.335004
 H        -3.162169        -1.035875        -0.196372
 H        -5.516414        -0.366256        -0.649184
 H        -4.892376         1.178614        -1.411322
 H        -4.746262        -1.654047        -2.426412
 H        -4.633242        -0.111251        -3.445606
