19
Iteration:  3727charge 0 multiplicity 1
 C         1.323269        -0.304385         0.640166
 C         0.208972         0.118171        -0.198254
 C        -0.904164         0.484000        -0.473650
 C        -2.319414         0.835980        -0.495522
 O        -2.805949         1.181876         0.863436
 C        -3.256759        -0.391270        -0.873298
 C        -4.764236        -0.102782        -1.011839
 C        -4.495838        -0.186951        -2.488353
 O        -3.036584        -0.388514        -2.334010
 H         2.171996         0.274837         0.362411
 H         0.971407        -0.037616         1.625079
 H         1.614796        -1.444781         0.743905
 H        -2.607915         1.693418        -1.102949
 H        -2.698818         2.121914         1.027560
 H        -2.636264        -1.290352        -0.491838
 H        -5.331521        -0.967775        -0.648983
 H        -4.988424         0.880617        -0.529983
 H        -4.953174        -1.187089        -2.937108
 H        -4.646924         0.599729        -3.203561
