19
Iteration:  3757charge 0 multiplicity 1
 C         1.418088        -0.371079         0.593384
 C         0.100355         0.059194         0.103674
 C        -0.897411         0.555299        -0.369394
 C        -2.326617         0.914854        -0.504591
 O        -2.708223         1.270665         0.912114
 C        -3.184724        -0.306719        -1.000289
 C        -4.618321        -0.118284        -1.003206
 C        -4.614297        -0.269894        -2.538049
 O        -3.169147        -0.504970        -2.503569
 H         2.136833         0.502490         0.560660
 H         1.342413        -0.549049         1.727139
 H         2.010760        -1.077705        -0.043207
 H        -2.557993         1.854304        -1.033034
 H        -3.504172         1.895362         0.889451
 H        -2.651450        -1.109192        -0.518610
 H        -5.131877        -0.913603        -0.409292
 H        -5.100326         0.767045        -0.561436
 H        -5.226233        -1.054280        -2.936288
 H        -4.885576         0.640314        -3.084126
