19
Iteration:  4987
 C         1.426192        -0.389863         0.588641
 C         0.267409         0.179853        -0.081285
 C        -0.831124         0.540363        -0.587782
 C        -2.297468         0.952007        -0.640710
 O        -2.669460         1.421627         0.671523
 C        -3.369247        -0.073905        -0.785333
 C        -4.786398         0.284213        -1.135064
 C        -4.569163        -0.596054        -2.394862
 O        -3.181490        -1.000470        -1.996846
 H         2.195068         0.376419         0.916981
 H         1.069675        -0.987205         1.475925
 H         1.963692        -1.147091        -0.062430
 H        -2.363113         1.803416        -1.388121
 H        -2.731292         2.421060         0.793356
 H        -3.524713        -0.833383         0.128371
 H        -5.595382        -0.028283        -0.400257
 H        -4.933035         1.310804        -1.433646
 H        -5.140889        -1.500456        -2.479219
 H        -4.487636        -0.153181        -3.395670
