19
Iteration:  3514
 C         1.331173        -0.312597        -0.335301
 C        -0.020540         0.089467        -0.216548
 C        -1.135943         0.544661         0.007160
 C        -2.584129         0.922463        -0.011756
 O        -3.159217         0.998135         1.333131
 C        -3.439954        -0.179166        -0.725967
 C        -4.600465         0.347217        -1.576513
 C        -3.876644        -0.386566        -2.793968
 O        -2.691113        -0.659083        -1.960981
 H         1.642119        -0.792565         0.637776
 H         1.577880        -0.997647        -1.217052
 H         2.025818         0.441153        -0.450226
 H        -2.672640         1.845726        -0.561769
 H        -2.464011         1.382555         1.859227
 H        -3.671647        -1.032212         0.053934
 H        -5.553820        -0.094152        -1.406494
 H        -4.557658         1.412134        -1.718528
 H        -4.374343        -1.376779        -3.098485
 H        -3.522725         0.241602        -3.668092
