19
Iteration:  4288
 C         1.387608        -0.596901         0.301801
 C         0.169185         0.209334         0.105043
 C        -0.921405         0.718644        -0.215718
 C        -2.302257         1.077773        -0.477058
 O        -2.905199         1.413794         0.737835
 C        -3.200465        -0.154674        -0.895214
 C        -4.701587         0.170401        -1.158429
 C        -4.531186        -0.684868        -2.410632
 O        -3.002849        -0.686913        -2.236994
 H         1.235966        -1.118916         1.182922
 H         1.503989        -1.381540        -0.438110
 H         2.243080         0.082943         0.262966
 H        -2.337862         1.885911        -1.266645
 H        -2.920241         0.527453         1.275817
 H        -3.078881        -0.719233         0.067130
 H        -5.498916        -0.167293        -0.498172
 H        -4.781166         1.250699        -1.408846
 H        -4.879086        -1.739558        -2.265921
 H        -4.839462        -0.341519        -3.406738
