19
Iteration:  2158
 C         1.372567        -0.221735        -0.189987
 C        -0.067256         0.086719        -0.107029
 C        -1.199808         0.500459         0.123273
 C        -2.642798         0.578038         0.228371
 O        -3.130628        -0.028792         1.473297
 C        -3.317958        -0.205944        -0.965712
 C        -4.628463         0.459487        -1.630957
 C        -3.929450         0.264811        -2.928800
 O        -2.629082        -0.008022        -2.281406
 H         1.803275         0.397484         0.525956
 H         1.526474        -1.305148        -0.135375
 H         1.945070        -0.031907        -1.049592
 H        -3.054618         1.668426         0.181251
 H        -2.554964         0.335519         2.109417
 H        -3.310100        -1.311019        -0.925181
 H        -5.460205         0.025731        -1.138231
 H        -4.640292         1.487434        -1.324653
 H        -4.339299        -0.664297        -3.563907
 H        -3.892115         1.194190        -3.557435
