19
Iteration:  1455
 C         1.383406        -0.121653         0.042861
 C         0.071488         0.257701         0.072761
 C        -1.128098         0.393575         0.147077
 C        -2.606344         0.355918         0.014019
 O        -3.100491        -0.167688         1.245986
 C        -3.225717        -0.332889        -1.156834
 C        -4.708331         0.253952        -1.445308
 C        -4.023100         0.793845        -2.673331
 O        -2.753133         0.088646        -2.443179
 H         1.578413        -0.599192         0.981564
 H         1.646634        -0.991095        -0.743280
 H         2.033037         0.698325        -0.159704
 H        -2.943737         1.487241         0.156230
 H        -2.998782        -1.163179         1.090569
 H        -3.129713        -1.431559        -1.170151
 H        -5.460015        -0.507744        -1.718016
 H        -5.138459         0.814507        -0.576882
 H        -4.392245         0.705210        -3.677868
 H        -3.783981         1.802478        -2.509576
