19
Iteration:  1462
 C         1.479699        -0.149730        -0.021395
 C         0.053632         0.233261         0.115351
 C        -1.148373         0.378363         0.120826
 C        -2.584686         0.400983         0.064462
 O        -3.179989        -0.183859         1.270670
 C        -3.294834        -0.347679        -1.097457
 C        -4.678877         0.246784        -1.464382
 C        -4.034845         0.808250        -2.688854
 O        -2.718408         0.086890        -2.479677
 H         1.761949        -0.550667         0.965663
 H         1.710894        -0.675541        -0.923043
 H         2.086596         0.851375        -0.110014
 H        -3.001289         1.480288         0.083658
 H        -2.993556        -1.196397         1.225849
 H        -3.030231        -1.419554        -0.987395
 H        -5.356719        -0.586689        -1.660007
 H        -5.175891         0.954962        -0.818931
 H        -4.406438         0.665959        -3.712359
 H        -3.812046         1.935903        -2.528380
