19
Iteration:    14charge 0 multiplicity 1
 C         1.513581        -0.062103         0.180214
 C         0.087742         0.071419        -0.089893
 C        -1.116039         0.021366         0.106244
 C        -2.589218         0.034349         0.040163
 O        -3.059785        -0.977872         0.941974
 C        -3.170458        -0.160184        -1.382818
 C        -4.708865         0.105799        -1.458435
 C        -4.270551         1.338228        -2.350031
 O        -2.766250         1.090637        -2.177278
 H         1.514143        -0.659445         1.053155
 H         2.209618        -0.485474        -0.531130
 H         1.928502         1.011415         0.626645
 H        -3.021744         1.026452         0.391152
 H        -3.109634        -1.807618         0.296119
 H        -2.850053        -1.091146        -1.876083
 H        -5.203167        -0.639477        -2.126343
 H        -5.245763         0.060468        -0.579337
 H        -4.571337         1.023170        -3.397718
 H        -4.473454         2.329811        -2.105291
