19
Iteration:  2170charge 0 multiplicity 1
 C         1.366721        -0.225539        -0.179161
 C        -0.025456         0.103268        -0.127042
 C        -1.230297         0.458496         0.005589
 C        -2.682046         0.523758         0.250792
 O        -3.093275        -0.022026         1.532121
 C        -3.341770        -0.155454        -1.018292
 C        -4.620177         0.435450        -1.563865
 C        -3.895860         0.256272        -2.956584
 O        -2.633492         0.013959        -2.247804
 H         1.944358         0.070068         0.681036
 H         1.631330        -1.298789        -0.150057
 H         1.582357         0.286962        -1.044426
 H        -2.948855         1.668127         0.256674
 H        -2.814823         0.615050         2.261665
 H        -3.443515        -1.177503        -0.559589
 H        -5.585347        -0.010443        -1.751975
 H        -4.691111         1.488939        -1.357597
 H        -4.251768        -0.661553        -3.627841
 H        -3.735014         1.140767        -3.649982
