19
Iteration:   923charge 0 multiplicity 1
 C         1.436750         0.057622         0.023907
 C         0.002039         0.234570         0.091274
 C        -1.215098         0.256635        -0.096308
 C        -2.657731         0.320690         0.182398
 O        -3.053594        -0.451334         1.339384
 C        -3.380183        -0.322120        -1.112570
 C        -4.689258         0.376534        -1.573994
 C        -3.843769         0.988537        -2.733838
 O        -2.807417         0.055039        -2.386260
 H         2.076594         0.942937        -0.369773
 H         1.864105        -0.121761         0.993935
 H         1.665574        -0.969727        -0.420748
 H        -2.741054         1.406864         0.405370
 H        -2.275156        -1.079522         1.575807
 H        -3.382492        -1.477207        -0.982330
 H        -5.451647        -0.394648        -1.902222
 H        -5.308751         1.103533        -0.964085
 H        -4.140659         0.682112        -3.816136
 H        -3.460768         2.040251        -2.606939
