19
Iteration:   759charge 0 multiplicity 1
 C         1.486889        -0.291669        -0.007589
 C         0.057428        -0.008057         0.116085
 C        -1.124711         0.233731         0.308195
 C        -2.545174         0.467163         0.125295
 O        -3.165727        -0.436430         1.124339
 C        -3.091213        -0.026911        -1.248740
 C        -4.543563        -0.143439        -1.538633
 C        -4.277146         0.642164        -2.771478
 O        -2.873997         0.934863        -2.321892
 H         1.668266        -1.382540         0.247644
 H         1.851513        -0.073908        -0.972427
 H         1.840334         0.400276         0.829976
 H        -2.760774         1.590249         0.227348
 H        -3.154900        -0.015906         1.946978
 H        -2.479354        -0.890903        -1.413785
 H        -4.856498        -1.175454        -1.694377
 H        -5.236575         0.319935        -0.804147
 H        -4.240869        -0.084269        -3.532831
 H        -4.639735         1.629593        -2.939933
