19
Iteration:   928
 C         1.474403         0.060357         0.017931
 C        -0.007660         0.251896         0.046443
 C        -1.232731         0.268746        -0.027569
 C        -2.642366         0.330487         0.158251
 O        -3.074782        -0.471654         1.362206
 C        -3.368738        -0.311939        -1.123897
 C        -4.704250         0.390575        -1.562254
 C        -3.817162         0.985727        -2.719298
 O        -2.812529         0.008194        -2.414959
 H         2.048700         0.871152        -0.315342
 H         1.705251        -0.230278         1.118721
 H         1.745367        -0.918940        -0.501476
 H        -2.918313         1.406329         0.338370
 H        -2.233497        -0.915155         1.492987
 H        -3.301474        -1.363699        -1.128705
 H        -5.397397        -0.394513        -1.804483
 H        -5.253450         1.078892        -0.955836
 H        -4.293736         0.892493        -3.701409
 H        -3.419083         2.017412        -2.640775
