19
Iteration:  2770charge 0 multiplicity 1
 C         1.450841        -0.246707        -0.170043
 C         0.078299         0.037076         0.018302
 C        -1.095441         0.304150         0.192883
 C        -2.458508         0.685747        -0.038316
 O        -3.120944         0.723659         1.264510
 C        -3.307121        -0.296378        -0.869734
 C        -4.694289         0.226547        -1.472274
 C        -3.986447         0.274297        -2.770391
 O        -2.854785        -0.373443        -2.267430
 H         2.076226         0.614772         0.047445
 H         1.894472        -1.086830         0.454025
 H         1.538694        -0.527688        -1.346827
 H        -2.388167         1.552339        -0.698649
 H        -4.049215         0.577728         1.168716
 H        -3.438372        -1.331714        -0.505825
 H        -5.430829        -0.635787        -1.525619
 H        -5.264487         1.166379        -1.099181
 H        -4.432573        -0.258258        -3.563899
 H        -3.825968         1.267219        -3.020524
