19
Iteration:  1330charge 0 multiplicity 1
 C         1.654734        -0.183529         0.426748
 C         0.200933         0.009690         0.144712
 C        -1.032705         0.009430         0.127900
 C        -2.394714         0.375066        -0.154320
 O        -3.215987        -0.056782         0.963720
 C        -3.167356        -0.275865        -1.353033
 C        -4.696919        -0.060848        -1.289953
 C        -4.416784         0.764943        -2.586734
 O        -2.975243         0.648611        -2.507065
 H         2.174586         0.819525         0.357294
 H         1.789227        -0.502757         1.402834
 H         2.132780        -0.769992        -0.430307
 H        -2.453169         1.505420        -0.159960
 H        -2.850995         0.165291         1.890408
 H        -3.023289        -1.322694        -1.573969
 H        -5.225120        -0.997406        -1.368465
 H        -5.071319         0.598982        -0.539530
 H        -4.748054         0.321019        -3.476141
 H        -4.528969         1.806693        -2.677218
