19
Iteration:  4126charge 0 multiplicity 1
 C         1.485928        -0.454705        -0.209905
 C         0.208462         0.149559         0.050605
 C        -1.014914         0.397925         0.075957
 C        -2.464840         0.879208        -0.274632
 O        -3.193306         1.622625         0.735096
 C        -3.363594        -0.305145        -0.661933
 C        -4.618475         0.324501        -1.369340
 C        -3.982124        -0.245008        -2.602773
 O        -3.071759        -1.051127        -1.869777
 H         2.298380         0.348088        -0.550767
 H         2.087827        -0.844276         0.717808
 H         1.343065        -1.279152        -0.895329
 H        -2.209956         1.601305        -1.150948
 H        -3.268174         0.931340         1.403693
 H        -3.435160        -0.926827         0.211177
 H        -5.653147        -0.006603        -1.276709
 H        -4.680816         1.419675        -1.357475
 H        -4.777637        -0.882705        -3.055088
 H        -3.567085         0.305569        -3.445961
