19
Iteration:  4795
 C         1.236034        -0.747722         0.064161
 C         0.176871         0.161072        -0.332350
 C        -0.983283         0.676220        -0.262695
 C        -2.367741         1.129530        -0.386083
 O        -3.087300         1.626345         0.757729
 C        -3.312107        -0.082487        -0.661657
 C        -4.654374         0.157441        -1.283251
 C        -4.129992        -0.722816        -2.439231
 O        -2.896040        -0.837813        -1.764392
 H         1.377905        -1.753037        -0.196950
 H         2.254976        -0.466353        -0.244514
 H         0.976648        -0.815915         1.087956
 H        -2.609346         1.744604        -1.284651
 H        -2.414731         2.215472         1.201797
 H        -3.459513        -0.596720         0.297766
 H        -5.560766        -0.358106        -0.897046
 H        -4.838824         1.235625        -1.601344
 H        -4.651867        -1.695993        -2.701178
 H        -4.012610        -0.201737        -3.410460
