19
Iteration:   481
 C         1.500175         0.135757         0.082109
 C         0.081368         0.303225         0.175940
 C        -1.135890         0.151399         0.042187
 C        -2.573394         0.193105         0.140349
 O        -3.304335        -0.911400         1.028540
 C        -3.200422        -0.206756        -1.228290
 C        -4.640451         0.323581        -1.456350
 C        -4.030682         1.113739        -2.601672
 O        -2.747752         0.461113        -2.361581
 H         1.910846        -0.221057        -0.784421
 H         1.968409         1.147473         0.220979
 H         1.832913        -0.562592         0.807615
 H        -2.853020         1.044116         0.648074
 H        -2.979038        -1.817963         0.893970
 H        -3.089413        -1.291856        -1.205420
 H        -5.381216        -0.457669        -1.778916
 H        -5.229775         0.944805        -0.675205
 H        -4.441134         0.785357        -3.559500
 H        -4.006021         2.208778        -2.561397
