19
Iteration:  1065
 C         1.447347         0.138908        -0.103042
 C        -0.026046        -0.181484        -0.070417
 C        -1.222214        -0.022101         0.126810
 C        -2.583765         0.331029         0.120296
 O        -3.319119        -0.049326         1.280918
 C        -3.190079        -0.227774        -1.099365
 C        -4.604129         0.074484        -1.528336
 C        -3.997780         0.824054        -2.675357
 O        -2.619756         0.420431        -2.279561
 H         1.803711        -0.381248         0.859849
 H         2.006262        -0.241797        -0.903002
 H         1.665622         1.210199        -0.037468
 H        -2.436090         1.361975        -0.115504
 H        -3.011896        -1.005090         1.445869
 H        -2.845083        -1.325405        -1.051164
 H        -5.285920        -0.806253        -1.722399
 H        -5.182157         0.610002        -0.717439
 H        -4.314375         0.313262        -3.646254
 H        -4.351068         1.838344        -2.842712
