19
Iteration:  4253
 C         1.268536        -0.563756         0.344128
 C         0.130432         0.255112        -0.112878
 C        -1.008431         0.552457        -0.426787
 C        -2.373085         1.021016        -0.287304
 O        -2.809346         1.465956         1.000411
 C        -3.271653        -0.183656        -0.801821
 C        -4.688743         0.173184        -1.333168
 C        -4.436467        -0.739468        -2.528402
 O        -2.946310        -0.636642        -2.217210
 H         1.421822        -0.435337         1.372975
 H         1.218856        -1.596102         0.028671
 H         2.321615        -0.177876         0.044234
 H        -2.463904         1.849672        -1.080956
 H        -1.912236         1.722700         1.425413
 H        -3.310730        -1.051634        -0.095811
 H        -5.616631        -0.049161        -0.782899
 H        -4.599711         1.251679        -1.384693
 H        -4.764790        -1.743492        -2.230823
 H        -4.737636        -0.438509        -3.554626
