19
Iteration:  3933
 C         1.396877        -0.567702         0.228762
 C         0.210414         0.289089        -0.055315
 C        -0.985093         0.512795        -0.278898
 C        -2.304359         1.003190        -0.280774
 O        -3.066613         1.361779         0.971817
 C        -3.267130        -0.215646        -0.887156
 C        -4.659471         0.168293        -1.180959
 C        -4.396345        -0.606577        -2.513014
 O        -2.924558        -0.629084        -2.256791
 H         0.964093        -1.454207         0.623920
 H         1.998050        -0.807075        -0.666811
 H         1.929036        -0.081571         1.083106
 H        -2.496095         1.901526        -0.957825
 H        -2.860870         2.324833         1.242796
 H        -3.207682        -1.081872        -0.228633
 H        -5.606091        -0.229185        -0.802313
 H        -4.719743         1.236187        -1.414674
 H        -4.645924        -1.685986        -2.666460
 H        -4.519955        -0.073924        -3.520999
