19
Iteration:  1775charge 0 multiplicity 1
 C         1.640990        -0.162261         0.089088
 C         0.199806         0.063771         0.247565
 C        -1.017361         0.043189         0.331331
 C        -2.437923         0.452082         0.021546
 O        -3.347835        -0.072299         1.034823
 C        -3.162537        -0.226434        -1.245333
 C        -4.682814         0.081647        -1.310033
 C        -4.300603         0.617297        -2.795378
 O        -2.914015         0.488475        -2.502335
 H         2.179719         0.505165         0.764911
 H         2.068571        -1.144539         0.459904
 H         2.022559        -0.028110        -0.824179
 H        -2.584588         1.571501        -0.247350
 H        -3.083612         0.398042         1.817449
 H        -2.827597        -1.292473        -1.366942
 H        -5.304606        -0.819797        -1.371945
 H        -5.011938         0.848437        -0.590077
 H        -4.718110        -0.067797        -3.598323
 H        -4.524421         1.696336        -3.101834
