19
Iteration:  2507charge 0 multiplicity 1
 C         1.644372        -0.372927         0.298172
 C         0.191272         0.020688         0.073577
 C        -1.024442         0.225715         0.025512
 C        -2.409391         0.626062        -0.046988
 O        -3.099004         0.590372         1.213843
 C        -3.194859        -0.150065        -1.168538
 C        -4.729708        -0.024756        -1.310209
 C        -4.413185         0.042165        -2.815712
 O        -3.027326         0.288133        -2.524474
 H         1.877668         0.060776         1.229259
 H         1.837171        -1.368364         0.309539
 H         2.373738         0.240417        -0.282687
 H        -2.413852         1.541770        -0.536034
 H        -2.555911         1.022450         1.967556
 H        -2.920116        -1.201670        -1.095547
 H        -5.453234        -0.825663        -1.039441
 H        -5.054315         0.952184        -0.854839
 H        -4.485233        -0.922588        -3.434587
 H        -5.049825         0.815446        -3.439923
