19
Iteration:  2236
 C         1.466462        -0.139079        -0.239848
 C        -0.028128         0.036887        -0.089219
 C        -1.175212         0.287228         0.114283
 C        -2.592960         0.522589         0.234768
 O        -3.159161         0.183175         1.551957
 C        -3.318178        -0.191556        -0.992615
 C        -4.650755         0.411112        -1.567992
 C        -3.918441         0.415411        -2.901968
 O        -2.657395        -0.173966        -2.310214
 H         1.972252        -0.906119         0.313812
 H         1.777752        -0.477403        -1.228575
 H         1.835722         0.833295        -0.021533
 H        -2.952113         1.577190         0.093915
 H        -4.080863         0.419866         1.479887
 H        -3.474541        -1.274875        -0.832092
 H        -5.587713        -0.101475        -1.387876
 H        -4.833418         1.426146        -1.257516
 H        -4.095898        -0.422304        -3.726741
 H        -3.970604         1.412445        -3.438984
