19
Iteration:  4901charge 0 multiplicity 1
 C         1.586719        -0.463169         0.082316
 C         0.170125        -0.033384        -0.043247
 C        -1.024287         0.300232         0.061447
 C        -2.303143         0.860589        -0.377942
 O        -2.913633         1.972773         0.422757
 C        -3.295430        -0.191490        -0.736302
 C        -4.885053         0.136745        -1.187924
 C        -4.337144        -0.600386        -2.414803
 O        -2.984585        -0.753152        -1.958096
 H         2.285691        -0.111526        -0.729879
 H         1.843907        -0.271273         1.124433
 H         1.639378        -1.650358         0.181044
 H        -2.255388         1.254028        -1.395180
 H        -3.716654         1.554973         0.852955
 H        -3.382223        -0.840837         0.194772
 H        -5.617901        -0.320424        -0.487540
 H        -5.180544         1.136701        -1.331769
 H        -4.840467        -1.560659        -2.565880
 H        -4.426153        -0.027586        -3.358036
