19
Iteration:  2999charge 0 multiplicity 1
 C         1.468061        -0.365156        -0.073735
 C         0.079043         0.116365         0.184763
 C        -1.058775         0.475755        -0.016401
 C        -2.483332         0.808887        -0.013187
 O        -3.182006         0.773970         1.205219
 C        -3.166910        -0.197906        -0.988313
 C        -4.704244         0.109566        -1.319444
 C        -4.250462        -0.212074        -2.803625
 O        -2.794391        -0.156034        -2.423465
 H         1.967874        -0.022089        -0.984451
 H         2.104030         0.030073         0.754803
 H         1.516540        -1.403221         0.094976
 H        -2.589429         1.840085        -0.417192
 H        -2.696176         0.876381         1.999053
 H        -3.102204        -1.150592        -0.467150
 H        -5.287815        -0.654870        -0.809799
 H        -4.914684         1.168183        -1.051802
 H        -4.491902        -1.239576        -3.147698
 H        -4.577121         0.614773        -3.592026
