19
Iteration:  1512charge 0 multiplicity 1
 C         1.419195         0.136525        -0.191877
 C         0.004997        -0.032246        -0.053528
 C        -1.159152        -0.017474         0.322399
 C        -2.625614         0.328216         0.151515
 O        -3.314017        -0.059112         1.270270
 C        -3.275193        -0.266079        -1.100625
 C        -4.644002         0.225519        -1.546087
 C        -3.917743         0.713434        -2.766521
 O        -2.640903         0.226182        -2.289616
 H         1.931317        -0.850537         0.021123
 H         1.454012         0.397697        -1.278984
 H         1.940439         0.877264         0.350536
 H        -2.641779         1.533771         0.117142
 H        -2.674332        -0.084222         1.947319
 H        -3.121240        -1.382775        -0.972047
 H        -5.437217        -0.519295        -1.703014
 H        -4.937477         1.004976        -0.809648
 H        -4.108982         0.289446        -3.776379
 H        -3.852622         1.749669        -2.830156
