19
Iteration:  3739
 C         1.359438        -0.296054         0.648448
 C         0.165830         0.039811        -0.098112
 C        -0.866208         0.545511        -0.527094
 C        -2.323705         0.857995        -0.401794
 O        -2.793898         1.221023         0.905666
 C        -3.107538        -0.338582        -0.978769
 C        -4.755941        -0.136022        -0.963293
 C        -4.538599        -0.228626        -2.529051
 O        -3.097189        -0.436583        -2.392007
 H         2.202418         0.344997         0.539307
 H         1.137953        -0.257937         1.696753
 H         1.661950        -1.364116         0.343633
 H        -2.470603         1.661033        -1.139515
 H        -3.069319         2.188308         0.771106
 H        -2.934678        -1.331055        -0.395740
 H        -5.528918        -0.809506        -0.561923
 H        -5.134849         0.878501        -0.695259
 H        -5.059770        -1.139815        -3.073962
 H        -4.823815         0.718190        -2.998304
