19
Iteration:  2720
 C         1.400997        -0.309295         0.077203
 C         0.022220         0.019786        -0.127695
 C        -1.143195         0.330087        -0.130884
 C        -2.581132         0.658040        -0.057550
 O        -2.914674         0.732436         1.255104
 C        -3.317636        -0.299436        -0.917777
 C        -4.804171         0.068069        -1.351947
 C        -4.018949         0.380737        -2.770992
 O        -2.737014        -0.258955        -2.265241
 H         2.103019         0.348661        -0.514031
 H         1.632844         0.051195         1.093446
 H         1.656149        -1.276165        -0.109924
 H        -2.694372         1.545493        -0.649339
 H        -3.858182         0.449891         1.492342
 H        -3.349225        -1.328819        -0.600940
 H        -5.433323        -0.793755        -1.355532
 H        -5.164814         0.748765        -0.652572
 H        -4.509524        -0.227651        -3.618826
 H        -3.732033         1.493387        -3.033879
