19
Iteration:  4468
 C         1.399433        -0.305378         0.576035
 C         0.255452         0.263846        -0.060302
 C        -0.899210         0.471018        -0.407143
 C        -2.310395         0.799158        -0.569095
 O        -2.820092         1.423641         0.535365
 C        -3.306546        -0.300450        -0.761042
 C        -4.716896         0.164981        -1.025630
 C        -4.477886        -0.286447        -2.455311
 O        -3.183775        -0.912406        -2.101589
 H         2.275666        -0.424642        -0.242320
 H         1.852380         0.389268         1.270178
 H         1.213366        -1.291083         0.870636
 H        -2.422491         1.422526        -1.509935
 H        -2.051972         1.496684         1.144221
 H        -3.131097        -1.071448         0.088530
 H        -5.552593        -0.265917        -0.416931
 H        -4.758252         1.258668        -1.081223
 H        -5.332859        -0.995528        -2.774990
 H        -4.448758         0.384819        -3.347842
