19
Iteration:  3605charge 0 multiplicity 1
 C         1.560099        -0.129029        -0.047539
 C         0.131968         0.075433        -0.094465
 C        -1.048988         0.331519         0.107885
 C        -2.438502         0.666101        -0.139190
 O        -3.215639         1.249605         0.943294
 C        -3.303824        -0.413946        -0.791818
 C        -4.676477         0.328814        -1.294984
 C        -4.174615        -0.200354        -2.697639
 O        -2.906228        -0.675931        -2.217492
 H         1.796637        -1.086932        -0.421217
 H         2.296190         0.600364        -0.421515
 H         1.673918        -0.073994         1.088557
 H        -2.520800         1.414756        -0.930932
 H        -2.482298         1.263839         1.645078
 H        -3.408339        -1.276026         0.000806
 H        -5.659926        -0.009996        -0.935529
 H        -4.433059         1.390137        -1.128970
 H        -4.950421        -1.087433        -2.978695
 H        -4.055091         0.543351        -3.510983
