19
Iteration:  1996
 C         1.639644        -0.286811         0.227784
 C         0.158319         0.033134         0.171756
 C        -1.056778         0.200489         0.062728
 C        -2.508431         0.510699        -0.037353
 O        -3.193872         0.258854         1.231050
 C        -3.186698        -0.266845        -1.231216
 C        -4.702485        -0.051504        -1.339369
 C        -4.330332         0.511642        -2.781080
 O        -2.874933         0.350868        -2.508824
 H         1.809323        -0.673594        -0.839719
 H         2.332978         0.582252         0.426596
 H         1.912803        -1.042597         0.947631
 H        -2.596521         1.502842        -0.384417
 H        -2.981408         0.978689         1.842432
 H        -2.714588        -1.228992        -1.287919
 H        -5.344703        -0.954707        -1.520147
 H        -5.297845         0.540325        -0.606412
 H        -4.590881        -0.077488        -3.670159
 H        -4.680637         1.571310        -2.813909
