19
Iteration:  2069
 C         1.506164        -0.125050        -0.016361
 C         0.067678        -0.064544         0.028086
 C        -1.119278         0.114953         0.213623
 C        -2.512927         0.481314         0.107084
 O        -3.218494         0.335195         1.327217
 C        -3.207403        -0.188716        -1.120251
 C        -4.665225         0.119794        -1.459012
 C        -4.127494         0.338021        -2.895854
 O        -2.772328         0.300541        -2.373347
 H         1.812811         0.613594        -0.775164
 H         2.168142         0.028673         0.895091
 H         1.650358        -1.073228        -0.547171
 H        -2.557140         1.627452        -0.255623
 H        -3.667116        -0.464527         1.428515
 H        -3.063221        -1.289782        -0.838980
 H        -5.285255        -0.621733        -1.019090
 H        -4.982448         1.037042        -0.945600
 H        -4.322339        -0.653849        -3.511758
 H        -4.288436         1.283919        -3.440099
