19
Iteration:  4207
 C         1.379009        -0.383430         0.217240
 C        -0.012098        -0.177657        -0.079246
 C        -0.996321         0.429264        -0.428469
 C        -2.407439         1.140330        -0.373498
 O        -2.793868         1.369697         1.025875
 C        -3.361484        -0.042603        -0.736796
 C        -4.851697         0.161460        -1.384601
 C        -4.197068        -0.621681        -2.587154
 O        -2.881083        -0.659937        -1.966183
 H         1.876244         0.378412         0.845535
 H         1.521816        -1.428689         0.569457
 H         2.030725        -0.309747        -0.736098
 H        -2.429221         1.924745        -1.191315
 H        -2.692335         2.327562         1.279111
 H        -3.521019        -0.581916         0.232605
 H        -5.651450        -0.376186        -0.833127
 H        -5.265768         1.083303        -1.807182
 H        -4.714595        -1.564332        -2.709389
 H        -4.072216        -0.113788        -3.600456
