19
Iteration:  3068
 C         1.672909        -0.188688         0.245238
 C         0.225817         0.022552         0.070224
 C        -1.005793         0.169540        -0.052629
 C        -2.417478         0.787763        -0.104056
 O        -3.063858         1.094327         1.140792
 C        -3.225845        -0.305563        -1.013475
 C        -4.794773        -0.167534        -1.229381
 C        -4.428854         0.000964        -2.783184
 O        -2.956098        -0.137965        -2.458484
 H         2.168570         0.586426         0.636477
 H         1.688007        -0.865821         1.005076
 H         2.250952        -0.684999        -0.545771
 H        -2.393010         1.658074        -0.853965
 H        -3.637412         0.288930         1.327962
 H        -2.930434        -1.275065        -0.885693
 H        -5.571215        -0.942212        -1.020773
 H        -5.080313         0.853919        -0.975087
 H        -4.820720        -0.930064        -3.360093
 H        -4.753149         0.959902        -3.309370
