19
Iteration:  2446
 C         1.410826        -0.509473         0.227711
 C         0.079637         0.159286         0.143290
 C        -1.016900         0.677871        -0.011193
 C        -2.428469         0.739514        -0.136806
 O        -2.998852         0.315027         1.123171
 C        -3.124196        -0.244577        -1.126274
 C        -4.633323        -0.019596        -1.184350
 C        -4.386507         0.276232        -2.705432
 O        -2.903654         0.051409        -2.564821
 H         2.168309         0.320182         0.411064
 H         1.671533        -1.150208         1.242542
 H         1.532150        -1.132273        -0.666647
 H        -2.507195         1.812306        -0.539936
 H        -3.896884         0.791152         1.270958
 H        -2.974070        -1.272798        -0.718109
 H        -5.201760        -0.881608        -0.894162
 H        -4.986415         0.776562        -0.535718
 H        -4.569823        -0.500261        -3.396091
 H        -4.690388         1.191268        -3.071790
