19
Iteration:  4657
 C         1.407678        -0.498069        -0.024367
 C         0.078099         0.067905        -0.107803
 C        -1.056312         0.553579         0.000563
 C        -2.388723         0.936545        -0.358039
 O        -3.034023         1.615064         0.777963
 C        -3.335232        -0.174682        -0.659285
 C        -4.529009         0.387069        -1.429708
 C        -4.285150        -0.673006        -2.437255
 O        -2.956633        -0.918294        -1.931483
 H         1.872662        -0.691509         0.961436
 H         1.409695        -1.506753        -0.448579
 H         1.933966         0.347129        -0.510302
 H        -2.368710         1.581808        -1.257864
 H        -2.370166         2.188096         1.125862
 H        -3.568221        -0.863841         0.135843
 H        -5.553263         0.157006        -1.185689
 H        -4.152652         1.344048        -1.847190
 H        -4.870924        -1.613764        -2.226524
 H        -4.271916        -0.512685        -3.563100
