19
Iteration:  2021charge 0 multiplicity 1
 C         1.522519        -0.173587         0.109440
 C         0.095388        -0.165989         0.048367
 C        -1.110315         0.142748         0.168193
 C        -2.440247         0.494720        -0.012354
 O        -3.199677         0.351235         1.176772
 C        -3.202315        -0.272078        -1.143136
 C        -4.666238        -0.007859        -1.391507
 C        -4.223374         0.429192        -2.841133
 O        -2.872375         0.403920        -2.347113
 H         2.036444         0.011883        -0.808016
 H         1.632583         0.687301         0.683143
 H         2.013391        -1.006067         0.674473
 H        -2.412146         1.552790        -0.488287
 H        -2.591188         0.453561         1.989847
 H        -2.780223        -1.327086        -1.150717
 H        -5.301086        -0.932339        -1.450454
 H        -5.231751         0.643858        -0.701555
 H        -4.504379        -0.255688        -3.786111
 H        -4.510875         1.488111        -2.960470
