19
Iteration:  1079
 C         1.432913         0.004256        -0.091208
 C         0.037517        -0.112304        -0.054809
 C        -1.140735         0.063499         0.213456
 C        -2.550875         0.429148         0.105772
 O        -3.374827        -0.080823         1.182234
 C        -3.123176        -0.266280        -1.158224
 C        -4.666764         0.032414        -1.432020
 C        -4.027608         0.710456        -2.700325
 O        -2.663018         0.516434        -2.265054
 H         1.938833        -0.611809         0.579454
 H         1.828550        -0.184145        -1.078436
 H         1.620450         1.101438         0.190988
 H        -2.839105         1.465400         0.189391
 H        -3.018797        -0.932165         1.466808
 H        -2.899386        -1.368995        -1.271782
 H        -5.286951        -0.820060        -1.607119
 H        -5.116467         0.806049        -0.826374
 H        -4.133420         0.220062        -3.688849
 H        -4.117367         1.779002        -2.683383
