19
Iteration:  2697charge 0 multiplicity 1
 C         1.425632        -0.322478         0.236070
 C         0.071868         0.006483        -0.182488
 C        -1.090873         0.393194        -0.197131
 C        -2.493474         0.758643        -0.106031
 O        -2.936907         0.605126         1.275980
 C        -3.246173        -0.271275        -0.839553
 C        -4.780162         0.011543        -1.438918
 C        -4.095905         0.356553        -2.716005
 O        -2.883823        -0.227370        -2.318923
 H         1.995433        -0.167577        -0.701752
 H         1.890859         0.413300         0.902236
 H         1.579230        -1.342679         0.428021
 H        -2.772622         1.720944        -0.495429
 H        -3.866234         0.808935         1.241051
 H        -3.138298        -1.281491        -0.437621
 H        -5.448481        -0.818393        -1.365859
 H        -5.205568         0.848564        -0.948583
 H        -4.566815        -0.176595        -3.634597
 H        -3.907514         1.516471        -2.840005
