19
Iteration:  1275
 C         1.587525        -0.237417         0.327707
 C         0.134147        -0.139275         0.335183
 C        -1.010005         0.119506         0.105690
 C        -2.424132         0.444141        -0.042111
 O        -3.155495        -0.060715         1.128786
 C        -3.023416        -0.068486        -1.332431
 C        -4.594844        -0.108755        -1.391134
 C        -4.528596         0.592235        -2.764045
 O        -3.051183         0.797938        -2.558436
 H         2.027470         0.279185        -0.592175
 H         2.103944         0.062990         1.208287
 H         2.000874        -1.307866         0.319656
 H        -2.511106         1.500533         0.110610
 H        -2.644492        -0.779410         1.598986
 H        -2.584586        -1.029879        -1.518756
 H        -5.081565        -1.051322        -1.249395
 H        -5.123999         0.557805        -0.712836
 H        -4.703272         0.001527        -3.634529
 H        -4.964833         1.522779        -2.998500
