19
Iteration:  3063
 C         1.658251        -0.199112         0.227246
 C         0.223603        -0.021062         0.005006
 C        -1.001722         0.192714        -0.038509
 C        -2.422503         0.780960        -0.124529
 O        -3.101306         1.109192         1.186607
 C        -3.220115        -0.337974        -1.015478
 C        -4.805564        -0.144636        -1.249231
 C        -4.459502        -0.023405        -2.799171
 O        -2.919375        -0.119991        -2.437801
 H         2.338285         0.790437         0.518829
 H         1.656902        -0.830413         1.275728
 H         2.248674        -0.696174        -0.553969
 H        -2.314981         1.735383        -0.613518
 H        -3.675998         0.364723         1.262212
 H        -2.784912        -1.435466        -0.817741
 H        -5.512409        -0.901966        -0.922268
 H        -5.024330         0.904663        -0.991258
 H        -4.631215        -0.891379        -3.367944
 H        -4.729297         0.940588        -3.308719
