19
Iteration:  4138
 C         1.473739        -0.441205        -0.158128
 C         0.197088         0.222932        -0.010977
 C        -1.032108         0.415017         0.040950
 C        -2.369280         0.770137        -0.186845
 O        -3.158662         1.621967         0.759642
 C        -3.417553        -0.298806        -0.642976
 C        -4.604655         0.365239        -1.415223
 C        -4.078258        -0.329596        -2.671196
 O        -3.026769        -1.008323        -1.894344
 H         2.425550         0.156092        -0.523782
 H         1.536646        -1.027248         0.825652
 H         1.359425        -1.199039        -0.920197
 H        -2.345877         1.511850        -1.102714
 H        -2.969314         1.430896         1.747208
 H        -3.613195        -1.032489         0.159870
 H        -5.496165        -0.158524        -1.064261
 H        -4.703039         1.456542        -1.345877
 H        -4.710848        -1.061678        -3.212650
 H        -3.639134         0.428861        -3.338434
