19
Iteration:  2679charge 0 multiplicity 1
 C         1.467044        -0.360970         0.189507
 C         0.092097         0.064387        -0.017560
 C        -1.042622         0.490009        -0.228963
 C        -2.460602         0.717251        -0.065990
 O        -2.960475         0.579545         1.336721
 C        -3.305525        -0.291247        -1.052785
 C        -4.732896         0.045631        -1.306756
 C        -4.202475         0.373500        -2.785666
 O        -2.888234        -0.281749        -2.408750
 H         2.102963        -0.686635        -0.694438
 H         1.993376         0.484954         0.806765
 H         1.370290        -1.130440         0.954809
 H        -2.640991         1.823026        -0.248318
 H        -3.686198         1.214583         1.346375
 H        -3.106290        -1.261620        -0.589188
 H        -5.298383        -0.899767        -1.383650
 H        -5.384589         0.774938        -0.778164
 H        -4.584042        -0.204506        -3.600374
 H        -4.049282         1.414273        -2.916796
