19
Iteration:  3240charge 0 multiplicity 1
 C         1.526376        -0.209986         0.414612
 C         0.140974        -0.055607        -0.021400
 C        -0.977249         0.346433        -0.373392
 C        -2.426793         0.788748        -0.239072
 O        -2.839047         0.992087         1.140031
 C        -3.331539        -0.305674        -0.927596
 C        -4.770571        -0.047090        -1.229500
 C        -4.346049         0.081906        -2.729236
 O        -2.996392        -0.337089        -2.354335
 H         1.854418        -1.316813         0.294481
 H         2.264601         0.543304        -0.126179
 H         1.701665        -0.078679         1.539042
 H        -2.491662         1.747872        -0.841406
 H        -3.763251         1.137651         1.042814
 H        -3.441919        -1.291819        -0.296013
 H        -5.489961        -0.820227        -0.917223
 H        -5.155335         0.878507        -0.805631
 H        -4.641709        -0.700863        -3.398295
 H        -4.332143         1.000937        -3.274101
