19
Iteration:  3655
 C         1.533077        -0.249671         0.301886
 C         0.148085         0.157206         0.159920
 C        -0.910806         0.602924        -0.164498
 C        -2.287334         0.859442        -0.397673
 O        -2.836117         1.204554         0.941516
 C        -3.328042        -0.316537        -0.907999
 C        -4.840602         0.028434        -1.182205
 C        -4.389869        -0.180766        -2.664377
 O        -3.126230        -0.740182        -2.301074
 H         1.831903        -0.543255        -0.777238
 H         2.118854         0.693501         0.575789
 H         1.813684        -0.976709         1.036660
 H        -2.479864         1.798071        -0.945617
 H        -2.960761         0.305375         1.212981
 H        -3.229275        -1.022631        -0.162796
 H        -5.568001        -0.746701        -0.904171
 H        -5.143770         1.049811        -1.087227
 H        -4.887398        -0.857059        -3.265353
 H        -4.279378         0.823073        -3.146486
