19
Iteration:  2198
 C         1.373041        -0.215896        -0.219563
 C         0.011451         0.170552        -0.051437
 C        -1.250670         0.230006        -0.016359
 C        -2.677377         0.547291         0.178745
 O        -2.988650         0.034250         1.416294
 C        -3.434399        -0.121557        -0.969396
 C        -4.742354         0.405564        -1.646885
 C        -3.838694         0.261072        -2.899202
 O        -2.612435         0.015072        -2.066034
 H         1.847432        -0.287710         0.844543
 H         1.581590        -1.117240        -0.937598
 H         1.887312         0.731129        -0.777401
 H        -2.730856         1.599975         0.127635
 H        -3.490779         0.710725         1.996391
 H        -3.595909        -1.148182        -0.561399
 H        -5.707943        -0.152264        -1.789155
 H        -4.880431         1.511489        -1.534876
 H        -4.067427        -0.432078        -3.638086
 H        -3.599863         1.215440        -3.295448
