19
Iteration:  1493
 C         1.511963         0.033690        -0.198595
 C         0.069822         0.014648         0.093293
 C        -1.138347         0.173964         0.167399
 C        -2.568342         0.426743         0.163936
 O        -3.360845        -0.155241         1.304126
 C        -3.281824        -0.259253        -1.072393
 C        -4.699977         0.241428        -1.517708
 C        -3.955174         0.776646        -2.778652
 O        -2.684828         0.133296        -2.371217
 H         2.086330        -0.752591         0.395215
 H         1.777969        -0.011987        -1.188285
 H         1.851725         0.981796         0.317718
 H        -2.737324         1.409447         0.122065
 H        -2.859727        -0.683652         1.890293
 H        -3.020971        -1.311947        -0.857294
 H        -5.211051        -0.690439        -1.774807
 H        -5.346791         0.940241        -0.999075
 H        -4.315964         0.405499        -3.791254
 H        -3.847731         1.917120        -2.791319
