19
Iteration:   740
 C         1.478723        -0.350602         0.138047
 C         0.053863        -0.050562        -0.026603
 C        -1.069943         0.428173         0.033657
 C        -2.587775         0.436450         0.169349
 O        -3.219188        -0.403439         1.121971
 C        -3.055428        -0.104913        -1.197536
 C        -4.576327        -0.236563        -1.519881
 C        -4.205848         0.710762        -2.758557
 O        -2.888651         0.958013        -2.218606
 H         1.598898        -1.258644         0.652961
 H         1.862084        -0.449067        -0.882821
 H         2.017023         0.552051         0.653433
 H        -2.940564         1.481288         0.054850
 H        -3.039151        -0.185132         2.004500
 H        -2.238253        -0.879989        -1.562019
 H        -4.803822        -1.279747        -1.765952
 H        -5.268101         0.137208        -0.742825
 H        -4.049658         0.225832        -3.792048
 H        -4.956627         1.561596        -2.603806
