19
Iteration:  1130
 C         1.420222        -0.326804        -0.104742
 C         0.085230         0.249062         0.329295
 C        -1.117664         0.278136         0.342112
 C        -2.542086         0.438761         0.132930
 O        -3.210735        -0.220784         1.186880
 C        -3.090069        -0.105452        -1.167872
 C        -4.550725        -0.038136        -1.488984
 C        -4.233082         0.617971        -2.853939
 O        -2.809913         0.622212        -2.448139
 H         1.119786        -1.496930        -0.169956
 H         1.657665        -0.036057        -1.140557
 H         2.312612        -0.045025         0.452201
 H        -2.973246         1.473233         0.261238
 H        -2.691762        -0.908668         1.526875
 H        -2.737926        -1.156039        -1.322397
 H        -5.112368        -1.016691        -1.386930
 H        -5.164090         0.707032        -0.874615
 H        -4.252178        -0.137057        -3.682381
 H        -4.580901         1.606587        -3.208549
