19
Iteration:  2468
 C         1.477842        -0.449585         0.236385
 C         0.098350         0.043635         0.149928
 C        -1.011550         0.511900        -0.004661
 C        -2.441581         0.771240        -0.129924
 O        -3.054378         0.367476         1.049213
 C        -3.044173        -0.220746        -1.152904
 C        -4.644316         0.016933        -1.224243
 C        -4.391346         0.158139        -2.673078
 O        -2.993182         0.138925        -2.494675
 H         1.961526         0.387364         0.886291
 H         1.702584        -1.355647         0.995839
 H         2.007589        -0.603258        -0.713236
 H        -2.665466         1.918609        -0.273455
 H        -3.492967         1.125194         1.345792
 H        -2.694113        -1.271404        -0.934640
 H        -5.159947        -0.825094        -0.814345
 H        -5.126924         0.891230        -0.821763
 H        -4.730082        -0.635422        -3.305340
 H        -4.648223         1.053125        -3.137653
