19
Iteration:  1739charge 0 multiplicity 1
 C         1.507726        -0.204303         0.058678
 C         0.100167         0.072620         0.076910
 C        -1.136849         0.208743        -0.025195
 C        -2.606193         0.438075         0.110028
 O        -3.249434        -0.145423         1.336034
 C        -3.203335        -0.216723        -1.132750
 C        -4.664452         0.138559        -1.453167
 C        -4.094625         0.543261        -2.863935
 O        -2.752279         0.529472        -2.381134
 H         1.904910         0.781120         0.206389
 H         1.754834        -0.854952         0.902559
 H         1.832845        -0.612414        -0.892627
 H        -2.884583         1.599429         0.106979
 H        -2.601795        -0.369259         2.030722
 H        -2.865118        -1.252051        -1.258699
 H        -5.387427        -0.704792        -1.446416
 H        -5.084248         0.817298        -0.711511
 H        -4.209378        -0.146530        -3.703523
 H        -4.356175         1.596880        -3.226448
