19
Iteration:  1118
 C         1.446992        -0.264999        -0.115220
 C         0.127896         0.214982         0.250535
 C        -1.092664         0.271574         0.296562
 C        -2.561640         0.395190         0.189148
 O        -3.368110        -0.211820         1.262937
 C        -3.075419        -0.151418        -1.238282
 C        -4.625996         0.003188        -1.463161
 C        -4.158189         0.583534        -2.838306
 O        -2.764605         0.620247        -2.460657
 H         1.688432        -1.462240        -0.000602
 H         1.465243        -0.020225        -1.223239
 H         2.318429         0.092531         0.419162
 H        -2.590551         1.539771         0.111052
 H        -2.760475        -0.949109         1.615216
 H        -2.588438        -1.128452        -1.339081
 H        -5.290884        -0.923730        -1.484499
 H        -4.932025         0.767024        -0.683132
 H        -4.452179         0.070075        -3.782659
 H        -4.563455         1.626337        -2.904599
