19
Iteration:  4748charge 0 multiplicity 1
 C         1.217743        -0.599822         0.027566
 C        -0.086786         0.066239        -0.017259
 C        -1.130230         0.684116        -0.397608
 C        -2.463359         1.160515        -0.314371
 O        -2.685553         1.795799         0.918241
 C        -3.372177        -0.135670        -0.679038
 C        -4.666863         0.179963        -1.404254
 C        -4.076172        -0.854906        -2.595667
 O        -2.876800        -0.905732        -1.840265
 H         1.222703        -1.617804         0.024102
 H         1.496860        -0.552032        -0.994531
 H         1.905277        -0.374648         0.836845
 H        -2.793424         1.886754        -1.040537
 H        -2.540616         1.204611         1.737062
 H        -3.215157        -0.724675         0.149631
 H        -5.565489        -0.231798        -0.947555
 H        -4.798073         1.170737        -1.715096
 H        -4.747602        -1.744417        -2.557950
 H        -4.111633        -0.476879        -3.636467
