19
Iteration:  4724
 C         1.271573        -0.576520        -0.044809
 C        -0.075082         0.027297         0.045237
 C        -1.087140         0.588276        -0.276729
 C        -2.425956         1.094465        -0.371701
 O        -2.695930         1.731298         0.882958
 C        -3.466833         0.007281        -0.721376
 C        -4.800508         0.097041        -1.511008
 C        -4.073970        -0.812525        -2.476915
 O        -2.835357        -0.824877        -1.804716
 H         1.594386        -1.498247         0.380229
 H         1.473671        -0.727016        -1.081522
 H         1.879201         0.143208         0.521096
 H        -2.430215         1.877914        -1.122237
 H        -2.499459         1.105808         1.624611
 H        -3.465039        -0.531630         0.181032
 H        -5.596741        -0.143561        -0.832863
 H        -4.893985         1.023619        -2.059733
 H        -4.592610        -1.773197        -2.554604
 H        -4.155354        -0.301516        -3.482724
