19
Iteration:  1779
 C         1.664884        -0.167260         0.130806
 C         0.177192         0.040737         0.262948
 C        -1.019794         0.069746         0.305430
 C        -2.423223         0.434277         0.010258
 O        -3.366263        -0.057881         1.015115
 C        -3.128635        -0.224006        -1.252641
 C        -4.670891         0.051065        -1.308554
 C        -4.319858         0.643500        -2.772509
 O        -2.919114         0.487752        -2.518213
 H         2.268037         0.476107         0.828650
 H         2.158833        -1.093212         0.346715
 H         1.997612         0.073906        -1.011468
 H        -2.436338         1.459643        -0.142034
 H        -3.151254         0.435850         1.851500
 H        -2.886250        -1.310698        -1.299480
 H        -5.378852        -0.787661        -1.246292
 H        -5.085869         0.875207        -0.700584
 H        -4.849967        -0.055464        -3.467876
 H        -4.524573         1.628670        -3.092984
