19
Iteration:  3367
 C         1.370312        -0.341871        -0.277989
 C         0.009874         0.026606        -0.228745
 C        -1.126683         0.331227         0.036478
 C        -2.504500         0.851352         0.092051
 O        -3.328705         1.063802         1.326464
 C        -3.295835        -0.177924        -0.814222
 C        -4.607877         0.253473        -1.547909
 C        -3.980695        -0.333450        -2.695010
 O        -2.662091        -0.436442        -2.102919
 H         1.985165         0.447144        -0.784414
 H         1.942619        -0.418521         0.607726
 H         1.480429        -1.322154        -0.818928
 H        -2.394688         1.793430        -0.425604
 H        -2.852176         1.902804         1.647953
 H        -3.275634        -1.174368        -0.402251
 H        -5.619876        -0.168027        -1.289757
 H        -4.670778         1.388409        -1.546013
 H        -4.288700        -1.280621        -3.110220
 H        -3.924839         0.243196        -3.681661
