19
Iteration:  3286charge 0 multiplicity 1
 C         1.494800        -0.294153         0.020386
 C         0.133090         0.144244         0.050147
 C        -1.066138         0.366477         0.142816
 C        -2.422357         0.735898        -0.140818
 O        -3.062908         0.981228         1.077710
 C        -3.232539        -0.323362        -0.920547
 C        -4.668869         0.175689        -1.234231
 C        -4.290818        -0.048665        -2.744553
 O        -2.925833        -0.467567        -2.400139
 H         1.855069        -0.922046        -0.796206
 H         2.146939         0.576131         0.376834
 H         1.802587        -1.048735         0.907680
 H        -2.402390         1.610615        -0.843393
 H        -3.577658         1.816777         0.962855
 H        -2.995742        -1.403615        -0.514313
 H        -5.516282        -0.401990        -0.913706
 H        -4.904683         1.198550        -0.978190
 H        -4.845551        -0.781459        -3.235205
 H        -4.197360         0.823564        -3.354571
