19
Iteration:  2492
 C         1.576426        -0.324848         0.310706
 C         0.213503        -0.026732         0.078124
 C        -0.969058         0.299794        -0.041145
 C        -2.440050         0.714490        -0.117116
 O        -3.163398         0.491286         1.262654
 C        -3.150403        -0.174283        -1.154683
 C        -4.691891        -0.008474        -1.254821
 C        -4.442245         0.076593        -2.758042
 O        -2.954953         0.243532        -2.613503
 H         2.102493         0.018150         1.275195
 H         1.621744        -1.497237         0.483519
 H         2.094995        -0.221390        -0.608311
 H        -2.580231         1.820328        -0.163436
 H        -2.918659         1.363628         1.645800
 H        -2.784714        -1.212349        -1.118875
 H        -5.185872        -0.880265        -0.765530
 H        -5.172820         0.884269        -0.848864
 H        -4.791396        -0.847785        -3.243246
 H        -4.740073         0.908244        -3.280465
