19
Iteration:  2001charge 0 multiplicity 1
 C         1.622813        -0.230188         0.222512
 C         0.136074        -0.025069         0.136832
 C        -1.044592         0.182752         0.118960
 C        -2.507791         0.510600        -0.045596
 O        -3.181828         0.273650         1.213500
 C        -3.193172        -0.280226        -1.198887
 C        -4.726348        -0.082141        -1.359924
 C        -4.324176         0.528408        -2.756452
 O        -2.853413         0.365018        -2.497808
 H         1.867753        -0.586299        -0.744850
 H         2.277714         0.608890         0.351609
 H         1.810472        -1.204947         0.770896
 H        -2.614975         1.657259        -0.379284
 H        -2.850019         0.981781         1.851422
 H        -2.718185        -1.307185        -1.298672
 H        -5.413590        -0.902628        -1.503125
 H        -5.245099         0.662754        -0.748997
 H        -4.475430        -0.152280        -3.671870
 H        -4.721961         1.537314        -2.956083
