19
Iteration:  2890
 C         1.404872        -0.293483        -0.219435
 C        -0.000492         0.000119        -0.068154
 C        -1.133312         0.455097         0.010246
 C        -2.575700         0.789129         0.103198
 O        -3.016074         0.725459         1.484503
 C        -3.393290        -0.146356        -0.906767
 C        -4.731218         0.221988        -1.617850
 C        -3.984762        -0.091003        -2.951307
 O        -2.658759        -0.259060        -2.143573
 H         1.585216        -1.266931         0.149460
 H         1.807764        -0.227815        -1.240426
 H         1.998495         0.379450         0.449194
 H        -2.796080         1.934839        -0.133678
 H        -3.522660        -0.125418         1.714122
 H        -3.524404        -1.083466        -0.338343
 H        -5.583561        -0.384986        -1.187386
 H        -5.116367         1.295141        -1.321952
 H        -4.242573        -1.096865        -3.333466
 H        -3.921089         0.656744        -3.865330
