19
Iteration:  4609
 C         1.570364        -0.470329        -0.011134
 C         0.212837         0.115638         0.197153
 C        -0.915950         0.502889         0.003307
 C        -2.239737         0.993517        -0.327042
 O        -2.988207         1.572156         0.686034
 C        -3.355172        -0.131164        -0.758532
 C        -4.817524         0.313517        -1.417712
 C        -4.404305        -0.622913        -2.555328
 O        -3.096071        -0.978898        -1.968679
 H         2.299490        -0.081202         0.799542
 H         1.506635        -1.468444         0.375658
 H         1.950165        -0.253388        -0.979742
 H        -2.200945         1.705904        -1.178598
 H        -2.606360         2.364474         1.165427
 H        -3.450311        -0.867863        -0.004214
 H        -5.621375        -0.069928        -0.762955
 H        -4.875554         1.319681        -1.773731
 H        -5.071698        -1.489362        -2.596716
 H        -4.280080        -0.300474        -3.558081
