19
Iteration:  3320charge 0 multiplicity 1
 C         1.442867        -0.306169        -0.266006
 C         0.136139         0.044469         0.323435
 C        -1.023848         0.420681         0.137523
 C        -2.422113         0.784496        -0.038965
 O        -3.207848         0.985652         1.106941
 C        -3.183117        -0.283271        -0.851193
 C        -4.651880         0.251496        -1.337325
 C        -4.216062        -0.145022        -2.785298
 O        -2.863671        -0.488453        -2.312105
 H         1.609716         0.040258        -1.255924
 H         2.249404         0.282516         0.217250
 H         1.685311        -1.462625        -0.014696
 H        -2.447597         1.625785        -0.766536
 H        -3.522282         1.889686         1.035830
 H        -3.295335        -1.340765        -0.376794
 H        -5.522354        -0.274007        -0.995552
 H        -4.884058         1.300427        -1.368688
 H        -4.704892        -0.961200        -3.189055
 H        -4.095494         0.503289        -3.642349
