19
Iteration:  4036charge 0 multiplicity 1
 C         1.446870        -0.432869        -0.075076
 C         0.073930         0.115246        -0.161815
 C        -1.160346         0.307154        -0.080784
 C        -2.541509         0.863472        -0.277242
 O        -2.849080         1.597721         0.940797
 C        -3.563018        -0.200226        -0.661224
 C        -4.780411         0.107250        -1.454874
 C        -3.948287        -0.377893        -2.715014
 O        -2.864042        -0.715314        -1.790087
 H         1.912818        -0.880327        -1.016245
 H         2.058969         0.269345         0.543124
 H         1.238977        -1.320151         0.662842
 H        -2.674486         1.536249        -1.255196
 H        -2.031603         1.619639         1.397640
 H        -3.687619        -0.855636         0.187835
 H        -5.689336        -0.435973        -1.126803
 H        -5.057676         1.176488        -1.403900
 H        -4.417837        -1.314471        -3.212605
 H        -3.658231         0.275919        -3.534749
