19
Iteration:  1184charge 0 multiplicity 1
 C         1.312252        -0.473950         0.198490
 C        -0.031728         0.068263        -0.051601
 C        -1.148184         0.564786         0.061758
 C        -2.523720         0.568892         0.103923
 O        -3.046913        -0.307405         1.242345
 C        -3.037258        -0.042392        -1.187521
 C        -4.571657        -0.158635        -1.465217
 C        -4.200609         0.477420        -2.798887
 O        -2.850230         0.837086        -2.345283
 H         1.432665        -1.449023        -0.489216
 H         1.978172         0.382819        -0.000069
 H         1.440113        -0.731167         1.259255
 H        -3.027652         1.598333         0.264411
 H        -2.422358        -1.005322         1.313919
 H        -2.432032        -0.945803        -1.396223
 H        -5.194182        -1.109411        -1.392248
 H        -5.174529         0.557072        -0.805549
 H        -4.192832        -0.314529        -3.551092
 H        -4.731954         1.272288        -3.354596
