19
Iteration:  4915charge 0 multiplicity 1
 C         1.526774        -0.474753         0.185894
 C         0.191769         0.001316        -0.053555
 C        -0.987993         0.405213        -0.015349
 C        -2.316797         0.893368        -0.414398
 O        -2.880330         1.890745         0.422318
 C        -3.405247        -0.228929        -0.653641
 C        -4.733809         0.188029        -1.158192
 C        -4.450460        -0.608113        -2.458031
 O        -3.015561        -0.814313        -2.003510
 H         2.201174         0.107671        -0.479990
 H         2.034841        -0.206182         1.234392
 H         1.677895        -1.592367        -0.160301
 H        -2.011070         1.438187        -1.338882
 H        -3.305113         1.514693         1.227540
 H        -3.349010        -1.046522         0.020947
 H        -5.536805        -0.365609        -0.655432
 H        -4.965267         1.301666        -1.268806
 H        -4.956156        -1.632142        -2.513234
 H        -4.434513        -0.073385        -3.439562
