19
Iteration:  2414charge 0 multiplicity 1
 C         1.363019        -0.505598         0.236952
 C         0.111192         0.290641         0.015184
 C        -1.072542         0.516833        -0.053162
 C        -2.486341         0.767524        -0.073644
 O        -2.924885         0.404796         1.345386
 C        -3.155846        -0.286153        -1.104760
 C        -4.674106        -0.099382        -1.320115
 C        -4.303978         0.383578        -2.757638
 O        -2.874825        -0.000785        -2.556960
 H         2.208606        -0.109029        -0.398608
 H         1.597123        -0.521440         1.389003
 H         1.398020        -1.491872        -0.199497
 H        -2.670596         1.804493        -0.182604
 H        -3.846738         0.241354         1.306368
 H        -2.890068        -1.315465        -0.815729
 H        -5.213012        -1.020212        -1.105398
 H        -5.099922         0.711335        -0.711900
 H        -4.585412        -0.197869        -3.680700
 H        -4.558275         1.397344        -3.003521
