19
Iteration:  2951
 C         1.326144        -0.414925        -0.046037
 C         0.084336         0.240965        -0.088881
 C        -1.065942         0.599918        -0.044690
 C        -2.512763         0.848618        -0.000921
 O        -3.080747         0.545360         1.376577
 C        -3.258499        -0.162060        -0.947289
 C        -4.693013         0.225304        -1.441660
 C        -4.128828        -0.191024        -2.791311
 O        -2.696591        -0.237395        -2.285235
 H         1.251973        -1.035665        -1.042016
 H         2.285795         0.201258        -0.193300
 H         1.403220        -1.042647         0.904002
 H        -2.640243         1.880218        -0.127114
 H        -3.952398         1.085260         1.379283
 H        -3.078920        -1.120552        -0.367390
 H        -5.475303        -0.391988        -1.040786
 H        -4.808120         1.267934        -1.479143
 H        -4.426592        -1.210919        -2.995546
 H        -4.217778         0.444747        -3.631097
