19
Iteration:  3229charge 0 multiplicity 1
 C         1.437353        -0.203689         0.450070
 C         0.073842        -0.014116         0.031179
 C        -1.024598         0.372667        -0.312887
 C        -2.383781         0.733564        -0.333866
 O        -2.703838         0.978261         1.140689
 C        -3.286249        -0.342814        -0.949508
 C        -4.781761         0.010302        -1.254770
 C        -4.377871         0.071873        -2.735347
 O        -3.007847        -0.341421        -2.332485
 H         1.752794        -1.312344         0.329075
 H         2.159800         0.341566        -0.321152
 H         1.622917         0.212533         1.492273
 H        -2.626404         1.667151        -0.902915
 H        -3.659812         1.029252         1.258117
 H        -2.811819        -1.332510        -0.553850
 H        -5.379845        -0.906889        -1.138754
 H        -5.249152         0.883050        -0.809036
 H        -4.956371        -0.596676        -3.340822
 H        -4.426516         1.056718        -3.158149
