19
Iteration:  1170charge 0 multiplicity 1
 C         1.356950        -0.458465         0.093804
 C        -0.014107         0.018551         0.140629
 C        -1.076725         0.670529         0.060361
 C        -2.652841         0.552301         0.159520
 O        -3.093090        -0.312508         1.195377
 C        -3.056806        -0.081923        -1.202409
 C        -4.530462        -0.066693        -1.441184
 C        -4.218294         0.452610        -2.877556
 O        -2.855368         0.779392        -2.340911
 H         1.544208        -1.393847        -0.383926
 H         2.131414         0.174467        -0.490156
 H         1.672229        -0.659049         1.098478
 H        -3.145007         1.569551         0.273398
 H        -2.339092        -1.011370         1.296881
 H        -2.602734        -1.143323        -1.217513
 H        -4.881708        -1.115439        -1.450838
 H        -5.056259         0.650822        -0.808648
 H        -4.171130        -0.243103        -3.699166
 H        -4.764661         1.439969        -2.954362
