19
Iteration:  4555
 C         1.422340        -0.227990         0.351291
 C         0.076750        -0.039871        -0.082767
 C        -1.102685         0.198126        -0.402261
 C        -2.372650         0.815755        -0.493762
 O        -2.814463         1.704075         0.680905
 C        -3.376622        -0.227367        -0.701274
 C        -4.699585         0.241124        -1.172335
 C        -4.311809        -0.491701        -2.471809
 O        -2.974223        -0.790801        -1.995798
 H         2.075437         0.723083         0.226828
 H         1.481941        -0.807298         1.253953
 H         1.890759        -0.791929        -0.421397
 H        -2.432032         1.430385        -1.438965
 H        -2.183188         1.505243         1.466122
 H        -3.409908        -1.010215        -0.014220
 H        -5.486505        -0.016680        -0.454783
 H        -4.951320         1.285462        -1.299779
 H        -4.868237        -1.435654        -2.683242
 H        -4.216528         0.057854        -3.401195
