19
Iteration:  2439charge 0 multiplicity 1
 C         1.377654        -0.539656         0.230903
 C         0.108308         0.214385         0.157298
 C        -1.000530         0.657485        -0.055629
 C        -2.461726         0.722039        -0.084090
 O        -2.989016         0.342384         1.177174
 C        -3.086557        -0.259897        -1.141450
 C        -4.619466        -0.002316        -1.232897
 C        -4.362367         0.285325        -2.692020
 O        -2.923595         0.024589        -2.557958
 H         2.132193         0.243336         0.097197
 H         1.525358        -0.963571         1.161702
 H         1.640651        -1.182695        -0.577673
 H        -2.778104         1.741606        -0.249958
 H        -3.898222         0.722000         1.155982
 H        -2.834961        -1.298517        -0.912375
 H        -5.116590        -0.971965        -0.960069
 H        -5.132135         0.815040        -0.673761
 H        -4.841815        -0.452285        -3.474009
 H        -4.636949         1.315367        -3.135187
