19
Iteration:  3949
 C         1.313884        -0.570224         0.256676
 C         0.212650         0.241042        -0.223511
 C        -0.925318         0.705755        -0.262040
 C        -2.429138         0.958850        -0.314340
 O        -3.060150         1.236352         0.960537
 C        -3.195293        -0.189362        -0.804082
 C        -4.658615         0.243432        -1.266778
 C        -4.336135        -0.556715        -2.553325
 O        -2.910133        -0.713377        -2.131198
 H         1.031234        -1.670712         0.320633
 H         2.199586        -0.640842        -0.404879
 H         1.803934        -0.170050         1.207349
 H        -2.567455         1.777205        -1.067599
 H        -3.183054         2.185527         1.040269
 H        -3.178206        -0.956949         0.001844
 H        -5.400898        -0.006895        -0.491165
 H        -4.678985         1.324574        -1.503521
 H        -4.908801        -1.485331        -2.433719
 H        -4.460878         0.050059        -3.407886
