19
Iteration:  2033charge 0 multiplicity 1
 C         1.529162        -0.082911         0.117674
 C         0.086939        -0.257508        -0.005258
 C        -1.106402         0.066909         0.079622
 C        -2.513403         0.503897         0.010491
 O        -3.272860         0.410978         1.240323
 C        -3.155305        -0.213030        -1.110042
 C        -4.684474        -0.027124        -1.350168
 C        -4.197832         0.438879        -2.806518
 O        -2.791883         0.387688        -2.376935
 H         1.829266         0.153118        -0.864843
 H         1.918855         0.628177         0.783270
 H         2.030331        -1.075468         0.279187
 H        -2.542029         1.643789        -0.191478
 H        -2.685437        -0.002031         1.834834
 H        -2.944261        -1.337271        -1.154038
 H        -5.241695        -0.980315        -1.339122
 H        -5.176186         0.828129        -0.876061
 H        -4.220216        -0.390188        -3.678991
 H        -4.534493         1.372622        -3.301653
