19
Iteration:  3573
 C         1.483856        -0.108142        -0.253774
 C         0.074799         0.028840         0.072780
 C        -1.153010         0.182598         0.100621
 C        -2.495670         0.728243        -0.109553
 O        -3.104414         1.184093         1.107052
 C        -3.370166        -0.250968        -0.768735
 C        -4.686171         0.287429        -1.437047
 C        -4.072514        -0.275503        -2.750627
 O        -2.813486        -0.620268        -2.106738
 H         1.740950        -1.128476        -0.235096
 H         1.747602         0.320299        -1.184298
 H         1.967231         0.434034         0.616652
 H        -2.288426         1.631797        -0.722534
 H        -2.645931         1.962341         1.422165
 H        -3.504645        -1.062399        -0.050479
 H        -5.727767         0.032008        -1.175514
 H        -4.789226         1.392059        -1.480245
 H        -4.449029        -1.269139        -3.250339
 H        -3.831697         0.308849        -3.643934
