19
Iteration:  2216charge 0 multiplicity 1
 C         1.442289        -0.128296        -0.233582
 C         0.006843         0.086684        -0.078735
 C        -1.195956         0.246009         0.062395
 C        -2.611954         0.557238         0.154781
 O        -3.055534         0.079071         1.484838
 C        -3.491181        -0.194432        -0.885379
 C        -4.693004         0.427961        -1.670388
 C        -3.804195         0.356067        -2.930795
 O        -2.685443        -0.041587        -2.164094
 H         1.782817        -0.815771         0.533992
 H         1.562868        -0.868558        -0.975930
 H         1.956534         0.746579        -0.427333
 H        -2.737124         1.706851         0.066988
 H        -3.874845         0.623152         1.745136
 H        -3.446550        -1.255627        -0.581545
 H        -5.478839        -0.317344        -1.473100
 H        -5.026590         1.396710        -1.268870
 H        -4.142233        -0.531197        -3.590393
 H        -3.656723         1.250220        -3.630979
