19
Iteration:  1602
 C         1.353937        -0.004610        -0.419821
 C        -0.000136         0.068992         0.065849
 C        -1.167964         0.219596         0.308834
 C        -2.694606         0.435665         0.320529
 O        -3.412522        -0.304267         1.328935
 C        -3.235427        -0.110580        -1.029294
 C        -4.536228         0.294148        -1.530391
 C        -3.826318         0.556157        -2.901049
 O        -2.554988         0.214561        -2.335411
 H         1.360283        -0.459197        -1.443524
 H         1.798988         0.924938        -0.319092
 H         2.064848        -0.628177         0.194879
 H        -2.828563         1.595949         0.569423
 H        -3.241566         0.173499         2.195959
 H        -3.014832        -1.171210        -0.992919
 H        -5.390645        -0.391299        -1.515631
 H        -4.785993         1.197587        -0.969781
 H        -4.283218        -0.107403        -3.650340
 H        -4.008940         1.530712        -3.200012
