19
Iteration:   340
 C         1.284844         0.156205        -0.376107
 C        -0.050668         0.054595         0.158197
 C        -1.228726        -0.053565         0.330198
 C        -2.663129         0.071582         0.233451
 O        -3.240436        -0.869745         1.183792
 C        -3.059749        -0.126749        -1.227396
 C        -4.510786         0.121805        -1.628370
 C        -3.928846         1.005849        -2.753108
 O        -2.617771         0.981136        -2.028567
 H         2.115780        -0.190312         0.307524
 H         1.260720        -0.467543        -1.300723
 H         1.518555         1.157936        -0.545536
 H        -3.055204         1.050555         0.652871
 H        -4.156802        -0.975391         1.086907
 H        -2.771514        -1.103294        -1.672549
 H        -5.105853        -0.756243        -1.924364
 H        -5.116638         0.721011        -0.943851
 H        -3.902471         0.695156        -3.800942
 H        -4.251623         2.077916        -2.630118
