19
Iteration:  4259
 C         1.292010        -0.547541         0.307357
 C         0.150676         0.279114        -0.055720
 C        -0.998184         0.589467        -0.411264
 C        -2.381479         0.965186        -0.330038
 O        -2.825004         1.473653         0.974884
 C        -3.226818        -0.212047        -0.845553
 C        -4.655752         0.194568        -1.310545
 C        -4.397369        -0.714799        -2.473795
 O        -3.018726        -0.623900        -2.226133
 H         1.231534        -0.708809         1.505272
 H         1.026986        -1.606385         0.017411
 H         2.265375        -0.180254         0.090339
 H        -2.438191         1.667703        -1.141967
 H        -2.014231         1.474313         1.514461
 H        -3.360847        -0.893471         0.032876
 H        -5.495859        -0.183547        -0.707852
 H        -4.624348         1.293572        -1.530717
 H        -4.843788        -1.738314        -2.296800
 H        -4.728251        -0.582731        -3.512586
