19
Iteration:  3135
 C         1.502700        -0.201266         0.476316
 C         0.194126         0.099995         0.098358
 C        -0.914024         0.449160        -0.195721
 C        -2.326354         0.674547        -0.302086
 O        -3.047914         0.814069         0.979967
 C        -3.154643        -0.348239        -1.101986
 C        -4.631286         0.008582        -1.091399
 C        -4.530037         0.141047        -2.599720
 O        -3.103583        -0.370108        -2.558895
 H         1.492221        -0.195587         1.504471
 H         1.628976        -1.200439         0.301143
 H         2.341700         0.396651         0.117738
 H        -2.426704         1.722790        -0.744318
 H        -2.902869         1.700382         1.337684
 H        -2.946740        -1.225059        -0.594327
 H        -5.226121        -0.876897        -0.838945
 H        -4.762520         0.820331        -0.383926
 H        -5.185594        -0.536662        -3.282914
 H        -4.367456         1.161983        -3.050778
