19
Iteration:  4914charge 0 multiplicity 1
 C         1.537839        -0.479864         0.187276
 C         0.190457        -0.000953        -0.058008
 C        -0.995482         0.401955        -0.009541
 C        -2.315737         0.881145        -0.415653
 O        -2.884218         1.898074         0.423411
 C        -3.397980        -0.220414        -0.654067
 C        -4.742356         0.190976        -1.156784
 C        -4.450377        -0.607703        -2.455662
 O        -3.007109        -0.810168        -1.998939
 H         2.202969         0.109700        -0.493485
 H         2.022474        -0.165359         1.207205
 H         1.651138        -1.606006        -0.186249
 H        -2.000745         1.427886        -1.325016
 H        -3.329290         1.515507         1.177187
 H        -3.361168        -1.067846         0.016773
 H        -5.544472        -0.387540        -0.676546
 H        -5.000461         1.268919        -1.283016
 H        -4.945622        -1.626501        -2.518500
 H        -4.436650        -0.073931        -3.439184
