19
Iteration:   860charge 0 multiplicity 1
 C         1.490842         0.080807         0.009661
 C         0.029596        -0.030843        -0.101618
 C        -1.161082         0.121261         0.079301
 C        -2.598831         0.245203         0.215991
 O        -3.250982        -0.379492         1.428411
 C        -3.207457        -0.176782        -1.216159
 C        -4.653306         0.300402        -1.465655
 C        -4.050258         0.726319        -2.855906
 O        -2.680487         0.503139        -2.388848
 H         2.017293         0.058378        -0.934217
 H         1.620920         0.900736         0.716173
 H         1.797742        -0.888982         0.659582
 H        -2.994625         1.286181         0.400987
 H        -2.657337        -1.199122         1.636690
 H        -3.202034        -1.245699        -1.200878
 H        -5.414226        -0.499102        -1.578783
 H        -5.077191         1.116908        -0.865084
 H        -4.116862         0.261277        -3.855253
 H        -4.354059         1.788000        -3.065033
