19
Iteration:  1464
 C         1.506427        -0.142342        -0.024399
 C         0.046561         0.223869         0.121958
 C        -1.153880         0.372570         0.109914
 C        -2.580694         0.408974         0.084284
 O        -3.200994        -0.190551         1.277126
 C        -3.303376        -0.344807        -1.090406
 C        -4.671844         0.230275        -1.467217
 C        -4.024069         0.825916        -2.698718
 O        -2.718829         0.086362        -2.484225
 H         1.842085        -0.550931         0.892247
 H         1.731231        -0.674692        -1.025248
 H         2.087335         0.836063        -0.084322
 H        -3.030046         1.553783         0.048404
 H        -2.994747        -1.180842         1.274934
 H        -3.057535        -1.405656        -0.921429
 H        -5.347242        -0.613357        -1.649880
 H        -5.165802         1.008567        -0.870863
 H        -4.420095         0.637544        -3.670188
 H        -3.848420         1.913432        -2.570695
