19
Iteration:  1663charge 0 multiplicity 1
 C         1.279670        -0.256254        -0.231293
 C        -0.062861         0.291655         0.012603
 C        -1.237390         0.515316         0.082414
 C        -2.674411         0.454088         0.291084
 O        -3.109681        -0.353867         1.469996
 C        -3.292104        -0.124371        -1.057913
 C        -4.633163         0.238649        -1.621416
 C        -3.848358         0.537169        -2.928854
 O        -2.594375         0.283927        -2.228257
 H         1.823130        -0.008820        -1.131276
 H         1.986152         0.131538         0.634107
 H         1.022877        -1.255633        -0.128119
 H        -3.117924         1.483831         0.440947
 H        -2.486395        -1.114339         1.460931
 H        -3.106650        -1.246112        -1.150076
 H        -5.490987        -0.457586        -1.693073
 H        -5.026174         1.139782        -1.119956
 H        -4.008355        -0.257365        -3.700896
 H        -3.795088         1.590241        -3.489737
