19
Iteration:  1468charge 0 multiplicity 1
 C         1.541476        -0.113642        -0.044939
 C         0.052289         0.198796         0.128352
 C        -1.163153         0.361136         0.089869
 C        -2.598098         0.435991         0.118720
 O        -3.237063        -0.199848         1.287893
 C        -3.295911        -0.324008        -1.085596
 C        -4.662759         0.197136        -1.474641
 C        -3.992849         0.850807        -2.711948
 O        -2.731903         0.085040        -2.481472
 H         2.021726        -0.670710         0.821109
 H         1.724355        -0.634681        -1.015869
 H         2.072228         0.790413        -0.055994
 H        -2.960179         1.445928         0.030879
 H        -2.977731        -1.102316         1.350314
 H        -3.169667        -1.397654        -0.843106
 H        -5.364695        -0.630936        -1.654227
 H        -5.125009         1.037378        -0.903152
 H        -4.481867         0.560770        -3.680328
 H        -3.899588         1.915792        -2.655398
