19
Iteration:  1850charge 0 multiplicity 1
 C         1.592635        -0.226095         0.566128
 C         0.196309         0.023959         0.070486
 C        -0.982038         0.139398        -0.133282
 C        -2.464843         0.426225        -0.121634
 O        -3.054425         0.207207         1.219529
 C        -3.207174        -0.265462        -1.277675
 C        -4.760083        -0.121425        -1.432992
 C        -4.419477         0.668376        -2.676217
 O        -3.018607         0.467154        -2.529580
 H         1.740694        -0.631596         1.564269
 H         2.247202        -0.893827        -0.103114
 H         2.129625         0.694263         0.455592
 H        -2.600393         1.498148        -0.249920
 H        -2.422146        -0.431751         1.664753
 H        -2.733550        -1.223591        -1.369964
 H        -5.298937        -1.065504        -1.605877
 H        -5.076273         0.278133        -0.477699
 H        -4.595192         0.261767        -3.635731
 H        -4.785335         1.755405        -2.701344
