19
Iteration:  4553charge 0 multiplicity 1
 C         1.437729        -0.214888         0.360790
 C         0.064522        -0.041716        -0.075279
 C        -1.108708         0.200339        -0.417744
 C        -2.380269         0.842371        -0.503563
 O        -2.796233         1.687371         0.676461
 C        -3.374417        -0.225257        -0.683749
 C        -4.695493         0.230726        -1.168828
 C        -4.320917        -0.481671        -2.476667
 O        -2.980252        -0.787033        -1.999605
 H         2.050581         0.716723         0.228654
 H         1.512516        -0.815453         1.271268
 H         1.945335        -0.897808        -0.352941
 H        -2.432872         1.350736        -1.488219
 H        -2.208380         1.436812         1.441104
 H        -3.427139        -0.991492         0.029402
 H        -5.500383        -0.054158        -0.448017
 H        -5.034721         1.239718        -1.363862
 H        -4.865869        -1.406993        -2.663441
 H        -4.173942         0.069095        -3.383542
