19
Iteration:  3824charge 0 multiplicity 1
 C         1.605383        -0.400719         0.372697
 C         0.269768         0.040481         0.047828
 C        -0.918555         0.378740         0.092614
 C        -2.250895         0.779215        -0.361250
 O        -3.034669         1.528991         0.632399
 C        -3.185508        -0.320530        -0.966744
 C        -4.697102        -0.076761        -0.983990
 C        -4.582769        -0.465550        -2.484936
 O        -3.132033        -0.242287        -2.448929
 H         1.861293         0.121079         1.298864
 H         1.617123        -1.506925         0.597094
 H         2.504377        -0.146336        -0.273964
 H        -2.183661         1.341241        -1.302173
 H        -3.933616         1.277528         0.738872
 H        -3.047144        -1.326392        -0.600226
 H        -5.452262        -0.595259        -0.396086
 H        -4.913742         1.005432        -0.986606
 H        -4.782282        -1.425877        -2.902521
 H        -4.973535         0.238638        -3.189072
