19
Iteration:  3401charge 0 multiplicity 1
 C         1.247108        -0.413192        -0.304066
 C        -0.108895         0.104948        -0.193005
 C        -1.202836         0.558394        -0.003351
 C        -2.600523         0.888734        -0.001392
 O        -3.063884         0.994023         1.343932
 C        -3.388606        -0.150089        -0.792756
 C        -4.621487         0.229575        -1.627261
 C        -3.808272        -0.410369        -2.738176
 O        -2.627699        -0.432704        -1.943047
 H         1.853386         0.516372        -0.457524
 H         1.462958        -1.118842         0.468535
 H         1.293184        -0.900877        -1.274351
 H        -2.800343         1.847790        -0.468402
 H        -2.321481         0.778714         1.985673
 H        -3.526307        -1.046359        -0.188575
 H        -5.684781        -0.120905        -1.647580
 H        -4.541984         1.333167        -1.833232
 H        -4.275311        -1.383687        -2.824195
 H        -3.679242         0.187810        -3.701419
