19
Iteration:  2340charge 0 multiplicity 1
 C         1.445607        -0.191393        -0.019133
 C         0.009190        -0.018678        -0.042247
 C        -1.147758         0.192244         0.143818
 C        -2.551839         0.606781         0.012715
 O        -3.066378         0.484373         1.330417
 C        -3.214442        -0.330737        -1.026153
 C        -4.671981        -0.016044        -1.418974
 C        -4.105842         0.470567        -2.817224
 O        -2.767769         0.011057        -2.373345
 H         1.645377        -0.646430        -0.982893
 H         1.787989         0.761988         0.015493
 H         1.967191        -0.781471         0.712111
 H        -2.562565         1.710998        -0.404738
 H        -3.807285         1.111317         1.633973
 H        -3.001309        -1.377233        -0.800622
 H        -5.399619        -0.846670        -1.602367
 H        -5.041744         0.758128        -0.704039
 H        -4.587150        -0.002258        -3.738747
 H        -3.894528         1.585830        -2.896791
