19
Iteration:  3960
 C         1.330491        -0.549123         0.226959
 C         0.101806         0.173728        -0.258744
 C        -0.963262         0.821464        -0.198843
 C        -2.357692         0.996355        -0.370839
 O        -2.988923         1.161448         0.933711
 C        -3.247913        -0.180742        -0.785093
 C        -4.560351         0.286405        -1.261856
 C        -4.270360        -0.522465        -2.526717
 O        -2.980357        -0.762857        -2.060157
 H         0.972038        -1.634121         0.232828
 H         2.222314        -0.391904        -0.412729
 H         1.437295        -0.331114         1.337039
 H        -2.688715         1.782533        -1.095414
 H        -3.291121         2.125844         1.078463
 H        -3.304023        -0.933427         0.016851
 H        -5.462803        -0.183631        -0.874982
 H        -4.786027         1.356275        -1.408780
 H        -4.796654        -1.503089        -2.680938
 H        -4.265689        -0.204340        -3.540700
