19
Iteration:  3873
 C         1.532378        -0.357819         0.243970
 C         0.063793        -0.203158         0.241859
 C        -1.025133         0.283773        -0.111593
 C        -2.365391         0.961096        -0.301624
 O        -2.879015         1.693188         0.790857
 C        -3.214772        -0.175896        -0.988870
 C        -4.672317        -0.086797        -1.111369
 C        -4.515985        -0.660519        -2.560677
 O        -2.986365        -0.275189        -2.370258
 H         2.151840        -0.574911         1.156946
 H         1.862624        -1.008332        -0.554797
 H         1.939228         0.608454        -0.081009
 H        -2.277166         1.631205        -1.127409
 H        -3.219837         1.229489         1.609765
 H        -3.073967        -1.160424        -0.411280
 H        -5.379186        -0.714010        -0.554254
 H        -5.129531         0.908745        -1.104895
 H        -4.714322        -1.770363        -2.653368
 H        -5.029869        -0.175120        -3.430837
