19
Iteration:  3856
 C         1.511010        -0.313068         0.256950
 C         0.100036        -0.129959         0.089553
 C        -1.081435         0.210646         0.039538
 C        -2.278617         0.871359        -0.344369
 O        -2.889567         1.691060         0.761306
 C        -3.190237        -0.215569        -0.947610
 C        -4.736569        -0.094829        -1.051366
 C        -4.424469        -0.576319        -2.465998
 O        -3.063065        -0.277240        -2.479776
 H         1.691636        -0.403087         1.337759
 H         1.882481        -1.344292        -0.038327
 H         2.061468         0.550391        -0.203257
 H        -2.122121         1.662742        -1.186132
 H        -3.648889         1.157643         1.099957
 H        -2.882086        -1.177281        -0.598319
 H        -5.346663        -0.714504        -0.336185
 H        -5.036087         0.969936        -1.013032
 H        -4.451062        -1.635551        -2.647944
 H        -4.791484         0.075412        -3.324352
