19
Iteration:  2615
 C         1.589263        -0.387581         0.279315
 C         0.208890         0.129429         0.153777
 C        -0.968777         0.367341        -0.059494
 C        -2.409139         0.725985        -0.115960
 O        -3.217764         0.588414         1.020399
 C        -3.163588        -0.293699        -1.097667
 C        -4.707271         0.064250        -1.197754
 C        -4.404124         0.216160        -2.721892
 O        -2.960595        -0.054859        -2.510173
 H         1.635930        -1.465992         0.122416
 H         2.298877         0.117698        -0.401289
 H         2.071286         0.013918         1.265966
 H        -2.623961         1.815264        -0.435919
 H        -2.624478         0.166070         1.734812
 H        -3.079687        -1.362740        -0.798730
 H        -5.487075        -0.620963        -0.764624
 H        -4.747197         1.064564        -0.641654
 H        -4.845440        -0.518417        -3.379023
 H        -4.583842         1.159059        -3.233723
