19
Iteration:  1045charge 0 multiplicity 1
 C         1.446514         0.150412        -0.077095
 C         0.037128        -0.097839        -0.049177
 C        -1.178341        -0.103855         0.087791
 C        -2.581158         0.279182         0.177881
 O        -3.275749        -0.040690         1.467463
 C        -3.230675        -0.328805        -1.197944
 C        -4.672709         0.133678        -1.578545
 C        -3.929903         0.899112        -2.718314
 O        -2.680512         0.332798        -2.351246
 H         1.916824         0.234177         0.894758
 H         1.986636        -0.381862        -0.783756
 H         1.562059         1.266880        -0.407660
 H        -2.830931         1.349712        -0.043439
 H        -3.135775        -0.983553         1.826446
 H        -3.045158        -1.459705        -1.293464
 H        -5.415677        -0.681505        -1.757257
 H        -5.308340         0.758810        -0.912485
 H        -4.266545         0.789744        -3.804588
 H        -3.942684         1.997552        -2.770677
