19
Iteration:  2767
 C         1.453677        -0.277285        -0.163396
 C         0.078476         0.048657         0.012790
 C        -1.104005         0.311469         0.168041
 C        -2.483195         0.668312        -0.032731
 O        -3.102958         0.743662         1.279208
 C        -3.326548        -0.311635        -0.879755
 C        -4.709563         0.223286        -1.439284
 C        -3.973080         0.276357        -2.777108
 O        -2.843913        -0.370583        -2.292613
 H         2.069996         0.626574         0.017006
 H         2.034865        -0.981517         0.523471
 H         1.491971        -0.482327        -1.203090
 H        -2.387146         1.547605        -0.617306
 H        -4.053596         0.533717         1.203910
 H        -3.395000        -1.322443        -0.495075
 H        -5.395994        -0.641856        -1.567536
 H        -5.253351         1.145382        -1.141201
 H        -4.441069        -0.303268        -3.582466
 H        -3.834407         1.396411        -3.039363
