19
Iteration:  1063
 C         1.447138         0.155784        -0.091321
 C        -0.017250        -0.182333        -0.075153
 C        -1.225629        -0.032952         0.118646
 C        -2.600623         0.315318         0.124612
 O        -3.313073        -0.041865         1.295692
 C        -3.195751        -0.237633        -1.099452
 C        -4.598827         0.084214        -1.525527
 C        -3.998597         0.827793        -2.694642
 O        -2.621116         0.415357        -2.284963
 H         1.816152        -0.388436         0.885344
 H         2.034369        -0.284267        -0.942575
 H         1.614049         1.196124        -0.115633
 H        -2.425532         1.388268        -0.059510
 H        -3.000448        -0.997490         1.441970
 H        -2.877330        -1.296736        -1.032706
 H        -5.248880        -0.806034        -1.778476
 H        -5.167349         0.584212        -0.701504
 H        -4.309733         0.314354        -3.625669
 H        -4.307253         1.908616        -2.790256
