19
Iteration:  3845
 C         1.476871        -0.342885         0.343086
 C         0.136055        -0.052816        -0.042176
 C        -1.028094         0.242879         0.157985
 C        -2.259769         0.859088        -0.330273
 O        -2.892917         1.601836         0.676196
 C        -3.154666        -0.249458        -0.976871
 C        -4.696164        -0.075035        -1.030196
 C        -4.497059        -0.546019        -2.511160
 O        -3.070736        -0.238977        -2.402969
 H         1.723320        -0.050367         1.366021
 H         1.795618        -1.364700        -0.019933
 H         2.146407         0.313826        -0.281403
 H        -1.970607         1.547833        -1.217892
 H        -3.788744         1.208992         0.963971
 H        -2.949123        -1.207501        -0.544360
 H        -5.393303        -0.799427        -0.562212
 H        -5.096172         0.949557        -0.943590
 H        -4.780181        -1.586853        -2.601650
 H        -5.078047        -0.055953        -3.338495
