19
Iteration:  3208
 C         1.388777        -0.206244         0.496802
 C         0.018442         0.096447         0.130557
 C        -1.055455         0.408073        -0.302052
 C        -2.410634         0.783760        -0.321338
 O        -2.549428         0.925237         1.107847
 C        -3.339657        -0.382377        -1.056337
 C        -4.755149        -0.059927        -1.151701
 C        -4.386177         0.129617        -2.680224
 O        -3.015053        -0.400166        -2.520570
 H         1.402462        -1.328920         0.800658
 H         2.231184        -0.139858        -0.372631
 H         1.888221         0.495560         1.316762
 H        -2.733473         1.663499        -0.856561
 H        -3.506021         1.040207         1.453806
 H        -3.073499        -1.374103        -0.490053
 H        -5.482626        -0.833198        -0.868264
 H        -4.949095         0.926488        -0.805661
 H        -4.880719        -0.451872        -3.380291
 H        -4.462523         1.131343        -3.067603
