19
Iteration:   229
 C         1.577560        -0.066302         0.077112
 C         0.090053        -0.021439         0.110175
 C        -1.132427         0.154499        -0.015500
 C        -2.609105         0.044211         0.130444
 O        -3.073485        -1.017679         1.080358
 C        -3.239500        -0.076763        -1.289586
 C        -4.678263         0.117236        -1.610515
 C        -4.178071         1.176560        -2.689249
 O        -2.818494         1.073704        -2.079652
 H         2.027375         1.018633         0.094167
 H         2.062269        -0.488152         1.038282
 H         2.024288        -0.624936        -0.804689
 H        -3.044515         1.046468         0.507250
 H        -3.395641        -0.504773         1.898892
 H        -2.943764        -1.107667        -1.630522
 H        -5.266899        -0.746688        -2.007546
 H        -5.337173         0.348713        -0.825086
 H        -4.252922         0.769113        -3.682922
 H        -4.650766         2.206802        -2.620081
