19
Iteration:  4751charge 0 multiplicity 1
 C         1.215227        -0.630306         0.048067
 C        -0.084557         0.090345        -0.050857
 C        -1.134781         0.689271        -0.392038
 C        -2.486125         1.151779        -0.307788
 O        -2.702103         1.795491         0.913625
 C        -3.369655        -0.125968        -0.677420
 C        -4.654498         0.156900        -1.400636
 C        -4.070610        -0.831674        -2.580050
 O        -2.878697        -0.923327        -1.855545
 H         1.140653        -1.712154        -0.061802
 H         1.674313        -0.487716        -0.999942
 H         1.873177        -0.287792         0.848230
 H        -2.729072         1.951936        -1.065451
 H        -2.490706         1.233781         1.694445
 H        -3.181104        -0.753080         0.236424
 H        -5.560238        -0.159406        -0.809414
 H        -4.680630         1.223211        -1.756575
 H        -4.724321        -1.745783        -2.566814
 H        -4.091182        -0.437924        -3.584999
