19
Iteration:  4250charge 0 multiplicity 1
 C         1.267150        -0.558443         0.351079
 C         0.123030         0.236485        -0.136508
 C        -1.003286         0.538613        -0.418536
 C        -2.376398         1.038335        -0.293999
 O        -2.792874         1.462277         1.009272
 C        -3.303225        -0.175393        -0.787448
 C        -4.705720         0.167762        -1.333381
 C        -4.442956        -0.744532        -2.540747
 O        -2.917118        -0.642995        -2.209869
 H         1.450289        -0.352252         1.462196
 H         1.285034        -1.628232         0.026698
 H         2.280248        -0.185385        -0.042045
 H        -2.532098         1.902774        -0.985223
 H        -1.975333         1.804348         1.397207
 H        -3.213592        -1.070236        -0.211676
 H        -5.643978         0.012418        -0.764765
 H        -4.660786         1.266692        -1.438035
 H        -4.721308        -1.738390        -2.249849
 H        -4.697935        -0.376817        -3.551637
