19
Iteration:  2757
 C         1.501250        -0.297318        -0.121882
 C         0.072153         0.059761         0.044087
 C        -1.130937         0.310167         0.052871
 C        -2.573658         0.620563        -0.003716
 O        -3.052904         0.816611         1.330839
 C        -3.367499        -0.344620        -0.950940
 C        -4.736845         0.160023        -1.386689
 C        -3.993645         0.345263        -2.818684
 O        -2.774724        -0.373357        -2.327584
 H         1.971156         0.684299        -0.240710
 H         2.009897        -0.952270         0.680073
 H         1.719415        -0.760508        -1.149525
 H        -2.710074         1.613658        -0.321841
 H        -4.001985         0.481868         1.330471
 H        -3.249773        -1.288578        -0.424483
 H        -5.548772        -0.634922        -1.371497
 H        -5.142954         1.131747        -0.934936
 H        -4.423317        -0.178204        -3.639833
 H        -3.714663         1.323954        -3.217830
