19
Iteration:  2175
 C         1.360049        -0.211765        -0.169727
 C        -0.064655         0.113508        -0.092051
 C        -1.210468         0.395102        -0.052663
 C        -2.665057         0.543634         0.236772
 O        -3.073500        -0.024445         1.543509
 C        -3.369243        -0.143255        -0.963080
 C        -4.626077         0.427407        -1.569754
 C        -3.849273         0.277411        -2.975969
 O        -2.641263         0.014707        -2.232393
 H         1.972319         0.127249         0.789376
 H         1.466877        -1.302622        -0.480193
 H         1.824103         0.314794        -1.171380
 H        -2.945531         1.556128         0.180474
 H        -2.973759         0.679559         2.157952
 H        -3.627532        -1.155042        -0.583053
 H        -5.578585        -0.124422        -1.808088
 H        -4.819133         1.516785        -1.334106
 H        -4.052899        -0.608940        -3.442575
 H        -3.818358         1.075639        -3.700779
