19
Iteration:  3108charge 0 multiplicity 1
 C         1.588473        -0.218960         0.330105
 C         0.142175         0.088550         0.331357
 C        -0.992242         0.381500        -0.085306
 C        -2.422345         0.743642        -0.312500
 O        -2.965474         0.922158         0.939622
 C        -3.223744        -0.426821        -1.055371
 C        -4.720815        -0.073060        -1.170410
 C        -4.437122         0.063604        -2.634382
 O        -3.090697        -0.219772        -2.566730
 H         2.102504         0.304767         1.249794
 H         1.717976        -1.363829         0.539954
 H         2.101767         0.225326        -0.548647
 H        -2.513137         1.687288        -0.830165
 H        -2.278009         0.813124         1.593190
 H        -2.813479        -1.398037        -0.556163
 H        -5.523892        -0.756338        -0.892929
 H        -4.762456         0.849775        -0.578459
 H        -4.942349        -0.631034        -3.247262
 H        -4.501247         1.096550        -3.025427
