19
Iteration:  3568
 C         1.492450        -0.118189        -0.272545
 C         0.057982         0.033448         0.102978
 C        -1.158063         0.153768         0.057492
 C        -2.501888         0.775137        -0.080140
 O        -3.111042         1.181524         1.153126
 C        -3.366040        -0.208048        -0.785492
 C        -4.706041         0.284018        -1.468912
 C        -4.065399        -0.282038        -2.768733
 O        -2.814311        -0.637020        -2.084848
 H         1.972761        -1.187204        -0.087895
 H         1.607199         0.356318        -1.342755
 H         2.152006         0.355412         0.430348
 H        -2.224597         1.657119        -0.663789
 H        -2.706753         2.022579         1.453332
 H        -3.409910        -1.146643        -0.056757
 H        -5.717840        -0.121289        -1.337368
 H        -4.799707         1.360964        -1.571136
 H        -4.362828        -1.247644        -3.112653
 H        -3.837847         0.335094        -3.671338
