19
Iteration:  1425
 C         1.410909        -0.215660         0.244453
 C         0.087364         0.273995        -0.026853
 C        -1.113248         0.446807        -0.159826
 C        -2.634339         0.409695         0.041237
 O        -3.078825        -0.212513         1.283763
 C        -3.202384        -0.342884        -1.160247
 C        -4.683334         0.175138        -1.436841
 C        -4.100507         0.839642        -2.628858
 O        -2.780821         0.162121        -2.488814
 H         1.643249        -0.131904         1.376670
 H         1.511904        -1.303738         0.128993
 H         2.173572         0.384577        -0.174052
 H        -3.053999         1.344047         0.019260
 H        -2.623339        -1.104473         1.333250
 H        -3.134570        -1.462717        -1.046453
 H        -5.346524        -0.614092        -1.806435
 H        -5.063147         0.707820        -0.523953
 H        -4.662040         0.774994        -3.643341
 H        -3.952172         1.929151        -2.338918
