19
Iteration:  4761
 C         1.183092        -0.662883         0.016951
 C        -0.035176         0.115194        -0.141978
 C        -1.109105         0.683817        -0.354512
 C        -2.496514         1.131651        -0.353736
 O        -2.777670         1.797113         0.921495
 C        -3.309620        -0.126525        -0.674103
 C        -4.641665         0.115188        -1.412765
 C        -4.157797        -0.757603        -2.489639
 O        -2.832268        -0.944653        -1.852616
 H         0.958622        -1.669721         0.129839
 H         1.967299        -0.336088        -0.651914
 H         1.661824        -0.351489         0.955353
 H        -2.608955         1.926693        -1.112394
 H        -2.308705         1.235318         1.533209
 H        -3.496302        -0.761777         0.177269
 H        -5.585237         0.018603        -0.845202
 H        -4.633462         1.163129        -1.727965
 H        -4.539620        -1.790762        -2.674491
 H        -3.939095        -0.278118        -3.436423
