19
Iteration:  3509charge 0 multiplicity 1
 C         1.316406        -0.351990        -0.332032
 C        -0.038902         0.142018        -0.236143
 C        -1.175794         0.564337        -0.055339
 C        -2.573182         0.876710         0.016289
 O        -3.192510         0.992714         1.343644
 C        -3.417932        -0.140938        -0.719749
 C        -4.546577         0.353853        -1.553253
 C        -3.848461        -0.399109        -2.801026
 O        -2.683489        -0.675245        -1.939756
 H         1.588709        -0.838235         0.639406
 H         1.595134        -1.099798        -1.054953
 H         2.043127         0.550108        -0.578120
 H        -2.723463         1.816814        -0.608481
 H        -2.367441         1.297844         1.836919
 H        -3.562713        -0.988933        -0.077632
 H        -5.584926        -0.023573        -1.318579
 H        -4.574365         1.465927        -1.712774
 H        -4.338342        -1.272401        -3.158836
 H        -3.740464         0.233489        -3.702527
