19
Iteration:  4050charge 0 multiplicity 1
 C         1.383463        -0.406842        -0.054276
 C         0.037714         0.045665        -0.200874
 C        -1.185920         0.221752        -0.111375
 C        -2.473971         0.870051        -0.162862
 O        -2.901957         1.721336         0.878159
 C        -3.493053        -0.260157        -0.592573
 C        -4.771506         0.175693        -1.479415
 C        -3.957249        -0.348173        -2.679086
 O        -2.852015        -0.796247        -1.823120
 H         1.870617        -0.290439        -1.119077
 H         2.103300         0.343705         0.422503
 H         1.540422        -1.421375         0.286010
 H        -2.221955         1.626252        -1.005662
 H        -2.421401         1.413389         1.718618
 H        -3.602613        -1.080985         0.210924
 H        -5.571614        -0.558188        -1.386412
 H        -5.172363         1.190647        -1.432314
 H        -4.384957        -1.215911        -3.241452
 H        -3.642980         0.389196        -3.427175
