19
Iteration:  3740charge 0 multiplicity 1
 C         1.367739        -0.298708         0.650075
 C         0.157256         0.038209        -0.091983
 C        -0.863192         0.548089        -0.525677
 C        -2.326885         0.862378        -0.397926
 O        -2.790939         1.224463         0.909166
 C        -3.102166        -0.331885        -0.977041
 C        -4.751631        -0.136880        -0.966500
 C        -4.542502        -0.233778        -2.529780
 O        -3.106519        -0.441468        -2.401275
 H         2.193111         0.376412         0.530516
 H         1.171860        -0.319676         1.697400
 H         1.640503        -1.334110         0.349948
 H        -2.466463         1.641801        -1.162737
 H        -3.092316         2.168957         0.762956
 H        -2.968773        -1.316194        -0.415198
 H        -5.493149        -0.838827        -0.531602
 H        -5.098587         0.883248        -0.708992
 H        -5.049331        -1.135188        -3.079950
 H        -4.818988         0.744651        -2.993791
