19
Iteration:   329charge 0 multiplicity 1
 C         1.267571         0.159315        -0.401696
 C        -0.022794        -0.007736         0.216537
 C        -1.209988        -0.041183         0.452887
 C        -2.641652         0.150224         0.297423
 O        -3.201325        -0.880268         1.112592
 C        -3.086950        -0.142271        -1.230031
 C        -4.612733         0.063711        -1.636673
 C        -3.950405         1.082097        -2.739808
 O        -2.606920         0.984483        -2.067826
 H         2.021190        -0.141516         0.400525
 H         1.503033        -0.568489        -1.224308
 H         1.459298         1.084798        -0.828020
 H        -2.908542         1.260436         0.309868
 H        -3.985555        -1.128684         0.628966
 H        -2.614861        -1.111183        -1.532861
 H        -5.204020        -0.830795        -1.886705
 H        -5.080180         0.675880        -0.876773
 H        -3.864186         0.563952        -3.695118
 H        -4.394002         2.108968        -2.955679
