19
Iteration:   415charge 0 multiplicity 1
 C         1.380838         0.202133        -0.213779
 C        -0.065147         0.043422         0.083162
 C        -1.272267         0.111563         0.164670
 C        -2.736244         0.127155         0.228994
 O        -3.276546        -0.888012         1.226673
 C        -3.159602        -0.110588        -1.156913
 C        -4.556534         0.202845        -1.617129
 C        -3.898429         1.068802        -2.644280
 O        -2.553212         0.681353        -2.211946
 H         1.943697        -0.638440        -0.478582
 H         1.386499         0.904157        -1.092252
 H         1.845571         0.682745         0.639752
 H        -3.136903         1.038943         0.541313
 H        -2.651525        -1.673002         0.954552
 H        -2.938678        -1.148668        -1.444766
 H        -5.244110        -0.647031        -1.842409
 H        -5.190400         0.843120        -0.866389
 H        -4.001081         0.783645        -3.706969
 H        -4.138423         2.160410        -2.530127
