19
Iteration:  4274
 C         1.264659        -0.583831         0.322712
 C         0.180412         0.297539         0.027334
 C        -0.948898         0.665413        -0.285248
 C        -2.342066         0.951774        -0.459688
 O        -2.842060         1.436531         0.838039
 C        -3.263744        -0.187857        -0.872977
 C        -4.702146         0.234153        -1.208018
 C        -4.458340        -0.735152        -2.424985
 O        -2.963227        -0.661996        -2.222418
 H         1.336862        -0.881524         1.374375
 H         1.243022        -1.388008        -0.416044
 H         2.337688        -0.133827         0.104767
 H        -2.587277         1.849263        -1.094782
 H        -2.376179         0.934483         1.488921
 H        -3.157803        -1.097606        -0.367849
 H        -5.468199         0.121312        -0.425449
 H        -4.812375         1.275957        -1.544833
 H        -4.769491        -1.743530        -2.260603
 H        -4.704073        -0.250178        -3.380740
