19
Iteration:  3569charge 0 multiplicity 1
 C         1.491507        -0.114759        -0.267443
 C         0.064359         0.032658         0.097211
 C        -1.160298         0.160583         0.067250
 C        -2.503309         0.763123        -0.089593
 O        -3.109343         1.181148         1.141285
 C        -3.364103        -0.214455        -0.781459
 C        -4.702440         0.285510        -1.458654
 C        -4.068290        -0.276856        -2.762834
 O        -2.814009        -0.633916        -2.091933
 H         1.927942        -1.181922        -0.108525
 H         1.639711         0.362562        -1.329573
 H         2.089567         0.352839         0.464162
 H        -2.231887         1.633508        -0.655574
 H        -2.684224         2.033311         1.458194
 H        -3.429304        -1.154134        -0.025575
 H        -5.720829        -0.069052        -1.313092
 H        -4.805501         1.350272        -1.555114
 H        -4.369095        -1.274344        -3.158670
 H        -3.828385         0.315657        -3.672162
