19
Iteration:  1606
 C         1.361467        -0.039913        -0.403027
 C        -0.016887         0.099473         0.074636
 C        -1.209135         0.257020         0.286135
 C        -2.680130         0.444413         0.335281
 O        -3.404397        -0.314275         1.326678
 C        -3.209010        -0.140504        -0.995723
 C        -4.522272         0.306637        -1.530843
 C        -3.835725         0.560414        -2.898718
 O        -2.555933         0.211686        -2.339910
 H         1.362861        -0.366476        -1.414162
 H         1.817162         1.001540        -0.408893
 H         2.036469        -0.789923         0.112601
 H        -2.830066         1.538109         0.477040
 H        -3.192336         0.058261         2.191607
 H        -3.038135        -1.247291        -1.071433
 H        -5.353559        -0.390835        -1.576937
 H        -4.793174         1.249270        -1.032829
 H        -4.308809        -0.160583        -3.608380
 H        -4.085060         1.642123        -3.324968
