19
Iteration:  4884
 C         1.549347        -0.515489         0.032333
 C         0.140326        -0.089178         0.038099
 C        -1.060760         0.291482         0.069250
 C        -2.321303         0.996744        -0.380722
 O        -2.883228         1.989472         0.463040
 C        -3.377700        -0.156932        -0.641481
 C        -4.756418         0.049855        -1.152956
 C        -4.333707        -0.650846        -2.499889
 O        -2.971278        -0.754161        -1.955514
 H         1.848164        -0.188078        -0.972869
 H         2.060292         0.197035         0.733856
 H         1.542545        -1.573448         0.034016
 H        -1.921112         1.578853        -1.255603
 H        -3.833701         1.762426         0.491898
 H        -3.261445        -0.947945         0.081120
 H        -5.648307        -0.417548        -0.732032
 H        -5.064022         1.160424        -1.329282
 H        -4.796911        -1.633925        -2.800560
 H        -4.411724        -0.028811        -3.412347
