19
Iteration:  2474
 C         1.517540        -0.444085         0.274450
 C         0.100085         0.039775         0.134973
 C        -1.018823         0.469858        -0.042844
 C        -2.411362         0.745232        -0.076195
 O        -3.088704         0.393518         1.094039
 C        -3.067945        -0.177171        -1.150894
 C        -4.631307         0.006574        -1.211035
 C        -4.420507         0.139745        -2.713281
 O        -2.984860         0.151553        -2.539735
 H         1.870592         0.339217         0.884407
 H         1.687654        -1.333258         0.769512
 H         2.069271        -0.475587        -0.704910
 H        -2.501991         1.767402        -0.446973
 H        -3.473735         1.200453         1.512259
 H        -2.792916        -1.197539        -0.862430
 H        -5.172380        -0.905520        -0.860623
 H        -5.017120         0.934534        -0.709565
 H        -4.581084        -0.802421        -3.338261
 H        -4.812939         1.158322        -3.175115
