19
Iteration:   530
 C         1.431427         0.178047         0.383901
 C         0.079642        -0.019604         0.033121
 C        -1.131562         0.051988        -0.003116
 C        -2.605045         0.045311        -0.022105
 O        -2.995996        -0.717163         1.108898
 C        -3.261282        -0.261486        -1.328253
 C        -4.691546         0.225515        -1.443051
 C        -4.152943         1.154496        -2.606565
 O        -2.834323         0.642197        -2.399107
 H         1.979224         0.709617        -0.493649
 H         1.590461         0.776016         1.250454
 H         2.000546        -0.780550         0.461016
 H        -2.723635         1.176517         0.074682
 H        -2.303614        -0.501215         1.798734
 H        -3.214767        -1.345961        -1.598945
 H        -5.372943        -0.580515        -1.639208
 H        -5.123713         0.809976        -0.679999
 H        -4.471556         0.863987        -3.657531
 H        -4.191384         2.317611        -2.517354
