19
Iteration:   184
 C         1.549389        -0.035076         0.343502
 C         0.144461        -0.077499         0.088491
 C        -1.071582        -0.002183         0.014444
 C        -2.547700         0.085519        -0.011785
 O        -2.909527        -0.883686         0.989418
 C        -3.236010        -0.120863        -1.362688
 C        -4.733717         0.137131        -1.503821
 C        -4.326271         1.272103        -2.512542
 O        -2.908676         1.007125        -2.277306
 H         2.116230         0.664022        -0.406197
 H         1.905661         0.314838         1.372569
 H         1.960361        -1.149496         0.217045
 H        -2.859260         1.091996         0.458563
 H        -3.865160        -1.250262         0.918380
 H        -2.761366        -0.977794        -1.888325
 H        -5.305859        -0.782249        -1.785686
 H        -5.310002         0.340001        -0.560145
 H        -4.588507         1.057002        -3.554380
 H        -4.625131         2.360034        -2.306989
