19
Iteration:  3952
 C         1.325103        -0.563414         0.265309
 C         0.173901         0.226493        -0.244495
 C        -0.925293         0.739559        -0.240132
 C        -2.421683         0.953766        -0.333750
 O        -3.042014         1.211028         0.952154
 C        -3.191512        -0.164251        -0.796648
 C        -4.622794         0.254776        -1.261384
 C        -4.313078        -0.551047        -2.550590
 O        -2.941023        -0.724138        -2.109994
 H         1.032213        -1.635928         0.251437
 H         2.213002        -0.630745        -0.409740
 H         1.682323        -0.243987         1.177107
 H        -2.687910         1.641260        -1.104470
 H        -3.243554         2.209105         1.081580
 H        -3.226144        -0.936828         0.063536
 H        -5.421994        -0.089970        -0.586771
 H        -4.714996         1.321003        -1.544121
 H        -4.871110        -1.463188        -2.415242
 H        -4.410634         0.056713        -3.523550
