19
Iteration:  3748
 C         1.413589        -0.312886         0.652402
 C         0.123852         0.035078        -0.006166
 C        -0.883582         0.569462        -0.483097
 C        -2.320870         0.882308        -0.424849
 O        -2.756043         1.251936         0.923103
 C        -3.156171        -0.287605        -0.954062
 C        -4.685818        -0.139832        -1.013762
 C        -4.577049        -0.253036        -2.516471
 O        -3.166747        -0.477695        -2.474919
 H         2.098236         0.490295         0.436549
 H         1.323383        -0.639852         1.712930
 H         1.787565        -1.362559         0.215322
 H        -2.576469         1.660928        -1.171981
 H        -3.338884         2.076998         0.823038
 H        -2.873712        -1.324297        -0.518302
 H        -5.017336        -0.931208        -0.352478
 H        -4.906697         0.900433        -0.699459
 H        -5.043887        -1.085011        -3.146257
 H        -4.738277         0.675403        -3.009180
