19
Iteration:  1836charge 0 multiplicity 1
 C         1.560712        -0.145625         0.417078
 C         0.135526        -0.070363         0.160151
 C        -1.024161         0.087773         0.035997
 C        -2.421074         0.459898        -0.138587
 O        -3.076540         0.153581         1.119319
 C        -3.154366        -0.272357        -1.292200
 C        -4.678768        -0.114434        -1.318864
 C        -4.434732         0.676552        -2.714779
 O        -2.965413         0.497934        -2.544673
 H         1.491790        -0.291225         1.515068
 H         1.981453        -1.038135        -0.053375
 H         2.200012         0.869000         0.320177
 H        -2.437360         1.466849        -0.387370
 H        -2.413203        -0.203460         1.746466
 H        -2.941227        -1.337632        -1.389779
 H        -5.203686        -1.089281        -1.356501
 H        -5.286263         0.552933        -0.718207
 H        -5.001463         0.220737        -3.525355
 H        -4.609054         1.734699        -2.614751
