19
Iteration:  2368charge 0 multiplicity 1
 C         1.472891        -0.308618         0.118975
 C         0.027531        -0.027610        -0.031122
 C        -1.090079         0.386392        -0.219621
 C        -2.608188         0.628627         0.012771
 O        -3.010526         0.497427         1.331831
 C        -3.229442        -0.282300        -1.016531
 C        -4.728017        -0.103350        -1.427924
 C        -4.128149         0.393684        -2.733839
 O        -2.758043         0.091204        -2.309402
 H         1.891137        -0.431639        -0.922797
 H         1.805936         0.629541         0.798361
 H         1.798572        -1.299693         0.529049
 H        -2.728683         1.609784        -0.405824
 H        -3.946025         0.714614         1.483582
 H        -2.969406        -1.343280        -0.814365
 H        -5.368821        -0.946639        -1.603889
 H        -5.242561         0.631280        -0.816105
 H        -4.561044         0.093344        -3.675097
 H        -4.060909         1.446291        -2.828764
