19
Iteration:  2980charge 0 multiplicity 1
 C         1.453348        -0.439010        -0.052500
 C         0.149940         0.199384         0.048232
 C        -0.995841         0.636917         0.169710
 C        -2.486517         0.825408        -0.065703
 O        -3.141158         0.621936         1.290115
 C        -3.259230        -0.174344        -0.969096
 C        -4.702405         0.127058        -1.431975
 C        -4.202463        -0.205593        -2.797187
 O        -2.848996        -0.200863        -2.381836
 H         1.559094        -0.402145        -1.083336
 H         2.243325         0.072018         0.363332
 H         1.420401        -1.485111         0.372941
 H        -2.627778         1.938290        -0.370682
 H        -2.963770         1.494277         1.687747
 H        -2.989888        -1.137631        -0.544053
 H        -5.483853        -0.558134        -0.971628
 H        -5.047630         1.212096        -1.475496
 H        -4.475053        -1.252102        -3.142363
 H        -4.362613         0.509536        -3.648945
