19
Iteration:  2973charge 0 multiplicity 1
 C         1.436980        -0.482504        -0.082677
 C         0.134652         0.252692         0.028666
 C        -1.020533         0.658042         0.190326
 C        -2.523495         0.817407        -0.031717
 O        -3.087239         0.605893         1.263295
 C        -3.232437        -0.164266        -0.930188
 C        -4.712857         0.164172        -1.454036
 C        -4.156004        -0.232787        -2.848829
 O        -2.879041        -0.199963        -2.357300
 H         1.781352        -0.689666        -1.204025
 H         2.291361         0.196147         0.321543
 H         1.447738        -1.406725         0.581412
 H        -2.739347         1.807582        -0.343909
 H        -3.266149         1.400532         1.714048
 H        -3.184081        -1.153499        -0.345143
 H        -5.354778        -0.519245        -0.933250
 H        -4.934903         1.202393        -1.423812
 H        -4.410461        -1.218629        -3.213583
 H        -4.373712         0.500976        -3.572808
