19
Iteration:   181charge 0 multiplicity 1
 C         1.569094        -0.031953         0.353377
 C         0.145570        -0.075246         0.082105
 C        -1.068152         0.022770         0.002155
 C        -2.539873         0.061888        -0.013233
 O        -2.937977        -0.885651         0.996860
 C        -3.193697        -0.110636        -1.377262
 C        -4.757361         0.138886        -1.491696
 C        -4.316246         1.262841        -2.488322
 O        -2.911888         1.009746        -2.300109
 H         2.100224         0.513581        -0.317252
 H         1.850687         0.342836         1.312279
 H         1.966256        -1.107118         0.267584
 H        -2.869559         1.040446         0.374607
 H        -3.836191        -1.264386         0.838796
 H        -2.762430        -0.985152        -1.878128
 H        -5.378320        -0.696314        -1.737049
 H        -5.335880         0.381791        -0.511512
 H        -4.620387         1.053407        -3.569993
 H        -4.668933         2.266384        -2.207982
