19
Iteration:  3036charge 0 multiplicity 1
 C         1.512033        -0.209779         0.105943
 C         0.092798        -0.073295        -0.025447
 C        -1.057326         0.358928         0.064574
 C        -2.461496         0.691721        -0.084650
 O        -3.070781         0.992085         1.088367
 C        -3.213926        -0.281163        -0.961975
 C        -4.706613        -0.009176        -1.232999
 C        -4.292419        -0.095653        -2.728242
 O        -2.854741        -0.064622        -2.410765
 H         2.107226         0.600472        -0.186208
 H         1.550592        -0.262409         1.142232
 H         1.997305        -1.105382        -0.356681
 H        -2.428982         1.697845        -0.654086
 H        -3.466312         0.180784         1.344914
 H        -2.941556        -1.325415        -0.812802
 H        -5.369660        -0.831101        -0.847344
 H        -5.177952         0.955500        -0.975112
 H        -4.471835        -1.166980        -3.123708
 H        -4.554188         0.619152        -3.490975
