19
Iteration:  1625
 C         1.269131        -0.103366        -0.373682
 C         0.002947         0.220792         0.075281
 C        -1.205392         0.422428         0.275137
 C        -2.697493         0.396396         0.217257
 O        -3.322111        -0.335601         1.309049
 C        -3.192447        -0.227808        -1.088479
 C        -4.582393         0.372868        -1.503830
 C        -3.841849         0.515322        -2.885444
 O        -2.539531         0.240032        -2.243280
 H         1.218432        -0.372505        -1.447528
 H         2.033548         0.476969        -0.017244
 H         1.585922        -1.068850         0.178490
 H        -3.087613         1.533110         0.363527
 H        -2.699625        -0.369924         2.003512
 H        -3.116464        -1.312360        -0.895842
 H        -5.426768        -0.315041        -1.449068
 H        -4.815935         1.272283        -0.919061
 H        -4.188898        -0.221101        -3.649955
 H        -3.835524         1.500231        -3.271863
