19
Iteration:  2557
 C         1.577336        -0.189631         0.315462
 C         0.149748        -0.157538         0.185899
 C        -0.997996         0.103651        -0.108534
 C        -2.387065         0.624977        -0.094028
 O        -3.017347         0.766541         1.248076
 C        -3.200281        -0.221248        -1.098782
 C        -4.729818        -0.004056        -1.312291
 C        -4.425540         0.024735        -2.835362
 O        -2.995021         0.298680        -2.531230
 H         2.074588        -0.794736         1.203817
 H         1.816363        -0.802658        -0.696305
 H         2.011832         0.795363         0.344046
 H        -2.385113         1.677089        -0.676626
 H        -3.410515        -0.027980         1.556404
 H        -3.098685        -1.299198        -0.790111
 H        -5.202905        -0.838881        -0.799833
 H        -5.138705         0.911295        -0.920552
 H        -4.590824        -0.863319        -3.386317
 H        -4.803335         0.810308        -3.406274
