19
Iteration:  1014
 C         1.513835         0.170434        -0.076566
 C         0.039138         0.115358         0.084384
 C        -1.181003        -0.013124         0.138531
 C        -2.611117         0.215471         0.097907
 O        -3.193234        -0.156255         1.360327
 C        -3.396024        -0.408535        -1.163919
 C        -4.730780         0.283208        -1.583183
 C        -3.829487         1.024548        -2.688994
 O        -2.732340         0.128277        -2.338085
 H         2.006233         0.541482         0.762216
 H         2.033126        -0.781035        -0.367341
 H         1.594768         0.820314        -1.055699
 H        -2.781509         1.254835        -0.265482
 H        -2.775797        -0.969113         1.624622
 H        -3.397609        -1.484840        -1.191647
 H        -5.295728        -0.555629        -1.972097
 H        -5.337856         0.893694        -0.924379
 H        -4.310878         0.714635        -3.629513
 H        -3.673139         2.109269        -2.490147
