19
Iteration:  3387
 C         1.341210        -0.378213        -0.334987
 C        -0.078584         0.046123        -0.242866
 C        -1.197452         0.476929        -0.011319
 C        -2.662837         0.860955         0.041564
 O        -3.193102         1.051149         1.358885
 C        -3.370171        -0.233715        -0.733560
 C        -4.565098         0.318763        -1.593886
 C        -3.872551        -0.426336        -2.796276
 O        -2.616910        -0.387004        -2.006124
 H         2.163784         0.345992        -0.384445
 H         1.617708        -0.767262         0.640969
 H         1.618862        -1.261874        -1.106515
 H        -2.752871         1.800528        -0.588297
 H        -2.424577         1.270907         1.899737
 H        -3.530004        -1.254755        -0.133758
 H        -5.459645        -0.058358        -1.078379
 H        -4.697561         1.408582        -1.580860
 H        -4.094044        -1.449337        -2.988098
 H        -3.711520         0.136446        -3.722627
