19
Iteration:  2949
 C         1.323378        -0.410098        -0.046342
 C         0.080959         0.241444        -0.099108
 C        -1.084693         0.593023        -0.068047
 C        -2.526866         0.830362        -0.009883
 O        -3.082876         0.549522         1.389236
 C        -3.234911        -0.152037        -0.934539
 C        -4.683815         0.232274        -1.456755
 C        -4.095462        -0.184623        -2.774499
 O        -2.708369        -0.239803        -2.291464
 H         1.248525        -1.066342        -0.973036
 H         2.213345         0.194315        -0.230753
 H         1.457529        -1.065205         0.927516
 H        -2.670534         1.899462        -0.111112
 H        -3.958735         1.011750         1.375136
 H        -3.105873        -1.104037        -0.327323
 H        -5.460467        -0.396098        -1.005034
 H        -4.832141         1.321140        -1.459339
 H        -4.403217        -1.212935        -2.979575
 H        -4.249602         0.425461        -3.573422
