19
Iteration:  3548
 C         1.449794        -0.164371        -0.332975
 C         0.085776        -0.010407         0.086230
 C        -1.079442         0.254950         0.043592
 C        -2.494118         0.833460        -0.036556
 O        -3.106233         1.137882         1.287451
 C        -3.454370        -0.098359        -0.784230
 C        -4.694300         0.248681        -1.597274
 C        -3.997574        -0.372828        -2.826358
 O        -2.790688        -0.620543        -2.037870
 H         1.833026        -1.143162         0.082289
 H         1.449052        -0.229884        -1.464850
 H         1.969252         0.647548         0.041550
 H        -2.395143         1.785028        -0.497567
 H        -2.837202         1.971784         1.610728
 H        -3.883710        -0.811692         0.056134
 H        -5.528940        -0.244164        -1.146761
 H        -5.101723         1.237741        -1.671587
 H        -4.428442        -1.289696        -3.430395
 H        -3.602895         0.260489        -3.650315
