19
Iteration:  1071charge 0 multiplicity 1
 C         1.413147         0.077192        -0.107739
 C        -0.017401        -0.153656        -0.061121
 C        -1.173907         0.009649         0.166548
 C        -2.532541         0.395476         0.109238
 O        -3.344662        -0.072361         1.224296
 C        -3.151498        -0.247645        -1.124191
 C        -4.650750         0.036585        -1.491768
 C        -4.012216         0.767234        -2.649649
 O        -2.632129         0.459833        -2.266236
 H         1.906432        -0.369636         0.766343
 H         2.011769        -0.263925        -1.071899
 H         1.716668         1.121398         0.222632
 H        -2.710924         1.559195        -0.077929
 H        -3.072330        -0.990689         1.503074
 H        -2.905573        -1.271378        -1.231703
 H        -5.301646        -0.805712        -1.612665
 H        -5.139398         0.777352        -0.874898
 H        -4.168834         0.333709        -3.612369
 H        -4.298940         1.846837        -2.896386
