19
Iteration:  1915
 C         1.384693        -0.402288         0.552378
 C         0.076631         0.073289         0.131636
 C        -1.018643         0.530814        -0.256150
 C        -2.496883         0.606647        -0.137295
 O        -2.962341         0.078508         1.175034
 C        -3.114942        -0.206996        -1.258376
 C        -4.597304        -0.135358        -1.239537
 C        -4.370139         0.662836        -2.606424
 O        -2.981534         0.258647        -2.660393
 H         1.467214        -1.499324         0.736583
 H         2.143120        -0.094844        -0.311704
 H         1.622028         0.254284         1.516961
 H        -2.789294         1.592183        -0.202316
 H        -2.358114        -0.735349         1.340459
 H        -2.679395        -1.202624        -1.178889
 H        -5.137851        -1.056737        -1.432101
 H        -5.004460         0.538941        -0.467895
 H        -4.903328         0.293686        -3.442282
 H        -4.709106         1.736815        -2.516071
