19
Iteration:  2529
 C         1.619090        -0.270602         0.292041
 C         0.171655        -0.041488         0.138802
 C        -1.031470         0.118925         0.058154
 C        -2.370587         0.610402        -0.197516
 O        -3.018209         0.704672         1.148962
 C        -3.203876        -0.259539        -1.138148
 C        -4.865467        -0.001001        -1.356394
 C        -4.344742        -0.003454        -2.766745
 O        -3.037568         0.386009        -2.398486
 H         1.899362        -0.271808         1.289586
 H         1.765827        -1.148116        -0.174131
 H         2.271945         0.571243        -0.079856
 H        -2.344774         1.495235        -0.690031
 H        -2.521368         0.129014         1.700993
 H        -3.057663        -1.314981        -0.949087
 H        -5.445020        -0.856425        -0.956473
 H        -5.302206         1.007262        -1.084712
 H        -4.401437        -0.956009        -3.410060
 H        -4.762547         0.837172        -3.487617
