19
Iteration:  4245
 C         1.289716        -0.531598         0.364233
 C         0.138089         0.175196        -0.165092
 C        -1.020641         0.535181        -0.395372
 C        -2.395508         1.046682        -0.327495
 O        -2.763777         1.447746         1.022781
 C        -3.349694        -0.153339        -0.794181
 C        -4.740448         0.170634        -1.323896
 C        -4.419166        -0.730569        -2.537089
 O        -2.887040        -0.646698        -2.191426
 H         1.389938        -0.352691         1.425748
 H         1.290262        -1.599019         0.139318
 H         2.109797        -0.179390        -0.217311
 H        -2.648723         1.949009        -0.886967
 H        -2.024323         2.003142         1.438790
 H        -3.062507        -1.111887        -0.223963
 H        -5.624481         0.035521        -0.696527
 H        -4.797382         1.232471        -1.683965
 H        -4.720166        -1.823989        -2.394415
 H        -4.610939        -0.340330        -3.534447
