19
Iteration:   440charge 0 multiplicity 1
 C         1.354248         0.190823        -0.129947
 C        -0.010984         0.094685         0.240656
 C        -1.205705         0.191183         0.339735
 C        -2.617503         0.074554         0.183808
 O        -3.130083        -0.885426         1.244297
 C        -3.188815        -0.234832        -1.289032
 C        -4.628225         0.311426        -1.600563
 C        -3.984048         1.138880        -2.685663
 O        -2.661709         0.585151        -2.341814
 H         1.615370        -0.669694        -0.888026
 H         1.460477         1.088434        -0.695686
 H         1.991783         0.273312         0.693388
 H        -3.107257         1.065122         0.347151
 H        -3.234132        -1.623003         0.614893
 H        -2.988296        -1.263366        -1.650219
 H        -5.432472        -0.320170        -1.971076
 H        -4.999685         0.742569        -0.688877
 H        -4.276931         0.758646        -3.687587
 H        -4.070905         2.293562        -2.671399
