19
Iteration:  3838
 C         1.542730        -0.364360         0.347912
 C         0.160842        -0.012339        -0.051452
 C        -1.013943         0.307611         0.177172
 C        -2.296731         0.798981        -0.341831
 O        -2.907122         1.568734         0.634657
 C        -3.165339        -0.263854        -0.954942
 C        -4.711587        -0.076961        -1.069901
 C        -4.585919        -0.500356        -2.550123
 O        -3.058413        -0.229686        -2.363339
 H         1.586381        -0.026198         1.379795
 H         1.744228        -1.431139         0.288344
 H         2.327369         0.173842        -0.315997
 H        -1.902742         1.519904        -1.001750
 H        -3.767423         1.083483         0.700449
 H        -2.727838        -1.249761        -0.564211
 H        -5.122668        -0.731566        -0.296686
 H        -5.013538         0.964483        -0.945463
 H        -4.767010        -1.609745        -2.497403
 H        -5.156231         0.008905        -3.258124
