19
Iteration:  1262
 C         1.562856        -0.315629         0.342098
 C         0.114883        -0.097709         0.317600
 C        -1.024529         0.177743         0.116065
 C        -2.415172         0.534512         0.036717
 O        -3.013695        -0.070143         1.135942
 C        -3.140259        -0.124736        -1.353074
 C        -4.698662        -0.149123        -1.449612
 C        -4.398156         0.558734        -2.826962
 O        -3.066592         0.841733        -2.451601
 H         1.952742         0.027576        -0.715720
 H         1.971589         0.332080         1.026898
 H         1.711040        -1.380272         0.355855
 H        -2.600328         1.630858        -0.106039
 H        -2.499753        -0.863880         1.235481
 H        -2.589499        -1.011430        -1.669069
 H        -5.195848        -1.122560        -1.528446
 H        -5.078809         0.536890        -0.648870
 H        -4.508979        -0.157029        -3.616044
 H        -4.985054         1.434938        -2.944482
