19
Iteration:   917
 C         1.409517         0.049957         0.044137
 C         0.001941         0.215946         0.129651
 C        -1.175056         0.235080        -0.153781
 C        -2.650942         0.282850         0.180303
 O        -3.019464        -0.427846         1.314278
 C        -3.409258        -0.307675        -1.086883
 C        -4.706284         0.362983        -1.594208
 C        -3.884803         0.959422        -2.753277
 O        -2.767002         0.103736        -2.342820
 H         1.882243         0.811884        -0.512062
 H         2.027447         0.084752         1.014757
 H         1.604611        -0.908093        -0.521767
 H        -2.846300         1.358287         0.410919
 H        -2.470562        -1.117392         1.584818
 H        -3.489975        -1.325052        -0.797335
 H        -5.406626        -0.295829        -2.072588
 H        -5.177834         1.035973        -0.910216
 H        -4.000498         0.674270        -3.776524
 H        -3.654077         2.025496        -2.620287
