19
Iteration:  2611
 C         1.577042        -0.354978         0.279955
 C         0.210603         0.083427         0.144866
 C        -0.956649         0.368541        -0.024434
 C        -2.399033         0.700281        -0.140667
 O        -3.207753         0.600261         1.043287
 C        -3.168486        -0.251543        -1.134828
 C        -4.700215         0.050725        -1.217058
 C        -4.403690         0.203610        -2.712932
 O        -2.983326        -0.040842        -2.496096
 H         1.603196        -1.492301         0.218800
 H         2.382125         0.082079        -0.446198
 H         1.904321         0.110527         1.152830
 H        -2.501364         1.795917        -0.491881
 H        -2.791695         0.043209         1.699032
 H        -3.022153        -1.279600        -0.766618
 H        -5.422283        -0.596371        -0.760721
 H        -4.734345         0.991018        -0.741715
 H        -4.856477        -0.616425        -3.284661
 H        -4.515610         1.179869        -3.156118
