19
Iteration:  1484
 C         1.538836        -0.004958        -0.118826
 C         0.115846         0.042110         0.118043
 C        -1.095809         0.253773         0.086864
 C        -2.660219         0.417464         0.175836
 O        -3.357463        -0.163759         1.315616
 C        -3.247898        -0.223041        -1.124848
 C        -4.667703         0.233008        -1.511662
 C        -3.968734         0.782571        -2.771353
 O        -2.765683         0.093436        -2.372702
 H         1.958019        -0.790158         0.522405
 H         1.637653        -0.173291        -1.181867
 H         2.145719         0.990699         0.015909
 H        -2.888910         1.502086         0.372762
 H        -2.767550        -0.824409         1.625679
 H        -2.999830        -1.317827        -0.996115
 H        -5.276728        -0.612013        -1.856701
 H        -5.183212         0.705720        -0.701324
 H        -4.249710         0.465968        -3.785099
 H        -3.677210         1.915742        -2.812777
