19
Iteration:  2737
 C         1.432659        -0.257145        -0.000093
 C         0.024449         0.014181        -0.040935
 C        -1.160582         0.304419        -0.134172
 C        -2.553175         0.644834        -0.057111
 O        -2.994269         0.824494         1.402453
 C        -3.323352        -0.452135        -0.933651
 C        -4.645730         0.120988        -1.435374
 C        -4.016026         0.347889        -2.743423
 O        -2.825562        -0.270094        -2.296834
 H         2.127362         0.493565        -0.443313
 H         1.823906        -0.378872         1.033780
 H         1.581280        -1.265339        -0.677540
 H        -2.619959         1.682582        -0.630364
 H        -3.910655         0.394625         1.438922
 H        -3.172480        -1.495718        -0.515109
 H        -5.481267        -0.623878        -1.575357
 H        -5.046596         1.155727        -1.081630
 H        -4.390234        -0.107969        -3.618716
 H        -3.976335         1.360801        -2.941383
