19
Iteration:  1182
 C         1.319607        -0.486885         0.181397
 C        -0.032705         0.058796        -0.029103
 C        -1.155812         0.587496         0.057665
 C        -2.523594         0.575612         0.112043
 O        -3.059954        -0.315603         1.243118
 C        -3.037158        -0.046061        -1.177219
 C        -4.560463        -0.138542        -1.473037
 C        -4.213272         0.457733        -2.801422
 O        -2.846662         0.827631        -2.339393
 H         1.436799        -1.394146        -0.450040
 H         2.033802         0.389662        -0.016675
 H         1.498301        -0.666762         1.220213
 H        -3.043532         1.603705         0.228423
 H        -2.383120        -0.989775         1.272921
 H        -2.444760        -0.946748        -1.486865
 H        -5.172411        -1.088852        -1.398168
 H        -5.143635         0.525573        -0.788298
 H        -4.216593        -0.270377        -3.596310
 H        -4.709353         1.328324        -3.354138
