19
Iteration:  3703charge 0 multiplicity 1
 C         1.319841        -0.234112         0.561848
 C         0.168980         0.206672        -0.174345
 C        -1.002257         0.399638        -0.424541
 C        -2.362590         0.799419        -0.422293
 O        -2.786196         1.218752         0.875263
 C        -3.234326        -0.352340        -0.913480
 C        -4.752617        -0.066967        -1.015893
 C        -4.471351        -0.196229        -2.551820
 O        -3.004020        -0.483922        -2.310062
 H         2.308591        -0.162386         0.063212
 H         1.266186         0.229283         1.601109
 H         1.102263        -1.355949         0.799896
 H        -2.560589         1.722051        -0.969672
 H        -1.913279         1.236432         1.390973
 H        -2.710021        -1.213494        -0.385693
 H        -5.390258        -0.867332        -0.635240
 H        -5.097251         0.981099        -0.857842
 H        -4.919234        -0.993526        -3.219972
 H        -4.518476         0.764702        -3.036130
