19
Iteration:  2922charge 0 multiplicity 1
 C         1.299216        -0.339028        -0.099030
 C        -0.041089         0.097889        -0.159835
 C        -1.153829         0.556325        -0.087498
 C        -2.610632         0.819930         0.021896
 O        -2.984142         0.620253         1.405679
 C        -3.275367        -0.223514        -0.891945
 C        -4.658661         0.255522        -1.487250
 C        -4.044557        -0.163094        -2.852350
 O        -2.615334        -0.208918        -2.171704
 H         1.299297        -1.386328        -0.342679
 H         1.986583         0.217791        -0.765268
 H         1.637897        -0.366167         0.905480
 H        -2.745883         1.989874        -0.066638
 H        -3.871633         0.212718         1.385053
 H        -3.245591        -1.153139        -0.306443
 H        -5.598926        -0.126151        -1.007476
 H        -4.591639         1.393567        -1.413204
 H        -4.372267        -1.201026        -3.098608
 H        -4.163042         0.556889        -3.821078
