19
Iteration:  2067
 C         1.503186        -0.109854        -0.003089
 C         0.082728        -0.080846         0.021753
 C        -1.137236         0.101353         0.188570
 C        -2.515524         0.477828         0.107745
 O        -3.224089         0.355512         1.332439
 C        -3.181183        -0.188192        -1.115073
 C        -4.654867         0.109635        -1.442162
 C        -4.134936         0.352130        -2.896567
 O        -2.776685         0.304127        -2.377032
 H         1.747138         0.550428        -0.767008
 H         2.116444         0.025834         0.853413
 H         1.728812        -1.101362        -0.507506
 H        -2.579435         1.615548        -0.218664
 H        -3.644508        -0.524590         1.404825
 H        -3.057109        -1.305791        -0.849044
 H        -5.298417        -0.640648        -1.022807
 H        -5.042483         1.036001        -0.982449
 H        -4.261584        -0.669789        -3.540673
 H        -4.331626         1.286010        -3.450405
