19
Iteration:  3092
 C         1.542382        -0.191253         0.318785
 C         0.163457         0.096271         0.239685
 C        -0.996275         0.317631        -0.001099
 C        -2.335050         0.654984        -0.324564
 O        -2.961182         0.997496         0.982779
 C        -3.220605        -0.326175        -1.052248
 C        -4.779176        -0.086415        -1.173608
 C        -4.507786         0.066672        -2.728349
 O        -2.983243        -0.196251        -2.433050
 H         2.102790         0.438347         0.948131
 H         1.755481        -1.186926         0.591357
 H         1.928812        -0.148613        -0.703905
 H        -2.262416         1.627795        -0.951709
 H        -2.698159         0.211142         1.575169
 H        -3.059766        -1.336192        -0.821439
 H        -5.229606        -1.063958        -0.919295
 H        -5.298033         0.785717        -0.755746
 H        -4.894460        -0.782795        -3.400882
 H        -4.727211         1.032482        -3.176597
