19
Iteration:  4402
 C         1.609660        -0.317501         0.387361
 C         0.187790        -0.021887         0.180729
 C        -0.947238         0.378362        -0.015064
 C        -2.252108         0.874839        -0.474756
 O        -2.788175         1.687331         0.574852
 C        -3.261669        -0.187555        -0.870960
 C        -4.873408        -0.078214        -1.077890
 C        -4.588550        -0.437072        -2.462088
 O        -3.176804        -0.749016        -2.307587
 H         2.022903        -1.111748        -0.351698
 H         2.218161         0.484517        -0.066531
 H         1.898025        -0.375309         1.389317
 H        -1.992050         1.651275        -1.210547
 H        -2.393304         2.589700         0.479896
 H        -3.199777        -1.063429        -0.094847
 H        -5.469770        -0.909656        -0.651738
 H        -5.365428         0.902569        -1.055113
 H        -5.153070        -1.340157        -2.979453
 H        -4.711726         0.395477        -3.222678
