19
Iteration:  4559
 C         1.404341        -0.242460         0.322200
 C         0.075957        -0.027750        -0.098195
 C        -1.063676         0.196382        -0.362743
 C        -2.363470         0.786531        -0.467885
 O        -2.837823         1.727072         0.688293
 C        -3.373918        -0.231087        -0.739008
 C        -4.717904         0.263729        -1.181705
 C        -4.303845        -0.519750        -2.469649
 O        -2.967715        -0.800237        -1.989770
 H         2.013469         0.652852         0.327862
 H         1.467558        -0.787529         1.288334
 H         1.856629        -0.720313        -0.600673
 H        -2.407488         1.563342        -1.265392
 H        -2.217427         1.646540         1.382356
 H        -3.377004        -1.108686         0.036958
 H        -5.521337        -0.048430        -0.519442
 H        -4.717984         1.409120        -1.200274
 H        -4.862512        -1.453127        -2.704544
 H        -4.325096         0.077459        -3.438026
