19
Iteration:  4815
 C         1.297588        -0.707544         0.067966
 C         0.076613         0.112251        -0.157203
 C        -0.976388         0.657814        -0.268509
 C        -2.391603         1.110713        -0.395056
 O        -3.057062         1.689530         0.755956
 C        -3.255805        -0.102445        -0.670367
 C        -4.724844         0.159451        -1.246102
 C        -4.178096        -0.644180        -2.444327
 O        -2.846981        -0.943158        -1.856542
 H         1.370633        -1.437422        -0.740808
 H         2.200238        -0.191382        -0.259558
 H         1.291376        -1.431014         0.902657
 H        -2.412694         1.851128        -1.217491
 H        -2.944386         2.613934         0.650909
 H        -3.268852        -0.677435         0.199666
 H        -5.531247        -0.210665        -0.573231
 H        -4.825769         1.223651        -1.362976
 H        -4.639439        -1.666790        -2.612316
 H        -4.031269        -0.273573        -3.478956
