19
Iteration:   200
 C         1.542306        -0.064562         0.236318
 C         0.073692        -0.058227         0.167494
 C        -1.130960        -0.057567        -0.010940
 C        -2.536164         0.147205         0.080410
 O        -2.832000        -0.931832         0.982916
 C        -3.193850        -0.082177        -1.302910
 C        -4.748824         0.141881        -1.623111
 C        -4.296037         1.236181        -2.594121
 O        -2.913722         1.009877        -2.157523
 H         1.949827         0.865575        -0.320093
 H         1.775287         0.069719         1.286132
 H         2.047746        -0.848118        -0.171780
 H        -2.796530         1.156627         0.352021
 H        -3.795907        -0.718623         1.296858
 H        -2.965441        -1.128444        -1.530801
 H        -5.299337        -0.634616        -2.192069
 H        -5.454324         0.390888        -0.822607
 H        -4.491721         0.966267        -3.646433
 H        -4.638018         2.226438        -2.363613
