19
Iteration:   113charge 0 multiplicity 1
 C         1.665574        -0.043926         0.452224
 C         0.171683        -0.009454         0.265193
 C        -1.026193        -0.001566        -0.031375
 C        -2.473775         0.081220        -0.088588
 O        -3.073655        -0.914169         0.785520
 C        -3.164492        -0.118538        -1.441493
 C        -4.669812         0.142847        -1.352829
 C        -4.430760         1.396633        -2.263145
 O        -3.081152         0.883141        -2.533340
 H         2.108599        -0.615023        -0.284776
 H         2.194400         0.877859         0.486627
 H         1.815201        -0.536313         1.398451
 H        -2.710057         1.079570         0.260518
 H        -2.326270        -1.388550         1.275099
 H        -2.877673        -1.101121        -1.825511
 H        -5.335331        -0.625708        -1.787684
 H        -5.138370         0.298942        -0.404493
 H        -4.862886         1.517471        -3.297903
 H        -4.356817         2.371662        -1.826810
