19
Iteration:  3580charge 0 multiplicity 1
 C         1.462027        -0.091397        -0.181744
 C         0.052865         0.028742         0.009768
 C        -1.112138         0.217255         0.145002
 C        -2.449512         0.721886        -0.119066
 O        -3.113660         1.179396         1.062929
 C        -3.407551        -0.294275        -0.790899
 C        -4.662100         0.307122        -1.432138
 C        -4.072405        -0.299772        -2.754003
 O        -2.820220        -0.603028        -2.096936
 H         1.663593        -1.206552        -0.349622
 H         1.886967         0.401705        -1.147041
 H         1.981799         0.376454         0.610932
 H        -2.451432         1.507167        -0.884647
 H        -2.509276         1.904569         1.388968
 H        -3.644427        -1.224658        -0.092435
 H        -5.563691        -0.073039        -0.948814
 H        -4.593388         1.381086        -1.356986
 H        -4.713060        -1.115295        -3.138820
 H        -3.942612         0.505790        -3.517474
