19
Iteration:  2673charge 0 multiplicity 1
 C         1.512100        -0.353620         0.220057
 C         0.085582         0.093230         0.012468
 C        -1.050573         0.486039        -0.150674
 C        -2.496244         0.740585        -0.173293
 O        -2.942850         0.554843         1.359435
 C        -3.265764        -0.288645        -1.047582
 C        -4.709695         0.040442        -1.354527
 C        -4.221268         0.354271        -2.733508
 O        -2.927006        -0.262749        -2.455140
 H         1.993156        -0.854305        -0.588940
 H         2.156889         0.411594         0.526496
 H         1.358683        -1.237284         0.946574
 H        -2.881933         1.762127        -0.327561
 H        -3.525543         1.306923         1.370006
 H        -3.220106        -1.329073        -0.642007
 H        -5.356854        -0.852503        -1.314862
 H        -5.174982         0.841630        -0.743356
 H        -4.740080        -0.312360        -3.496924
 H        -4.022818         1.480502        -2.946986
