19
Iteration:  3132
 C         1.511860        -0.204137         0.454993
 C         0.172759         0.094435         0.133339
 C        -0.911393         0.446552        -0.200250
 C        -2.323680         0.660741        -0.308833
 O        -3.060488         0.833794         1.006597
 C        -3.148288        -0.343353        -1.133457
 C        -4.625588         0.009696        -1.086412
 C        -4.552792         0.139794        -2.618246
 O        -3.087690        -0.366337        -2.558095
 H         1.677095        -0.133458         1.563023
 H         1.544823        -1.306994         0.326275
 H         2.309096         0.509654         0.021029
 H        -2.514064         1.598532        -0.822669
 H        -2.773072         1.660061         1.386360
 H        -2.930086        -1.291757        -0.544063
 H        -5.224210        -0.878890        -0.801955
 H        -4.802699         0.820486        -0.412069
 H        -5.122367        -0.530207        -3.242358
 H        -4.362519         1.186581        -3.035220
