19
Iteration:  2357
 C         1.440291        -0.227902         0.019940
 C        -0.011420        -0.077953        -0.002877
 C        -1.167253         0.306354        -0.113645
 C        -2.544971         0.598668        -0.031219
 O        -3.031156         0.495798         1.366704
 C        -3.228669        -0.314252        -1.021871
 C        -4.712231        -0.042147        -1.424546
 C        -4.093878         0.472873        -2.709721
 O        -2.736732         0.050540        -2.376942
 H         2.004321        -0.400638        -0.930710
 H         2.119143         0.653915         0.520599
 H         1.541398        -1.019541         0.797244
 H        -2.674264         1.628543        -0.226956
 H        -3.917712         1.005084         1.444666
 H        -2.989422        -1.358957        -0.726017
 H        -5.131645        -1.025288        -1.468769
 H        -5.356286         0.637379        -0.877716
 H        -4.300688        -0.207072        -3.532481
 H        -4.274260         1.518132        -2.896290
