19
Iteration:  2842
 C         1.411065        -0.215087        -0.280084
 C         0.022646         0.065661        -0.055205
 C        -1.141881         0.340925         0.233144
 C        -2.562105         0.638971        -0.011982
 O        -3.252787         0.688336         1.286812
 C        -3.330021        -0.310854        -0.873860
 C        -4.628981         0.352083        -1.499146
 C        -3.932070         0.048332        -2.778679
 O        -2.703406        -0.315610        -2.191789
 H         1.930935        -0.681771         0.622463
 H         1.381934        -1.052040        -1.043699
 H         1.961572         0.577304        -0.721302
 H        -2.458635         1.758967        -0.443959
 H        -2.518315         1.033181         1.844534
 H        -3.410084        -1.307645        -0.416328
 H        -5.586814        -0.146500        -1.393459
 H        -4.836709         1.366591        -1.386016
 H        -4.507564        -0.760404        -3.344042
 H        -3.814941         0.964155        -3.501483
