19
Iteration:  3636
 C         1.635646        -0.209571         0.157743
 C         0.206209         0.168959         0.116096
 C        -0.976685         0.409871        -0.095703
 C        -2.400764         0.841052        -0.302503
 O        -3.080043         1.192022         0.888118
 C        -3.255012        -0.244723        -0.887211
 C        -4.753651         0.149657        -1.235366
 C        -4.333605        -0.165869        -2.695536
 O        -3.072800        -0.755702        -2.200805
 H         1.937437        -0.967749        -0.618186
 H         2.338446         0.707667         0.174497
 H         1.901433        -0.818467         1.022715
 H        -2.474426         1.709015        -0.980555
 H        -2.928439         0.453459         1.460910
 H        -3.194837        -1.062568        -0.046916
 H        -5.419110        -0.599873        -0.804415
 H        -5.037155         1.134895        -0.866885
 H        -5.046835        -0.860315        -3.152300
 H        -4.191678         0.696649        -3.353257
