19
Iteration:  4375
 C         1.606646        -0.400315         0.313556
 C         0.222414         0.106242         0.205362
 C        -0.998111         0.245267        -0.087568
 C        -2.349952         0.798275        -0.458781
 O        -2.849744         1.814948         0.518818
 C        -3.298904        -0.352811        -0.779771
 C        -4.829763        -0.113773        -1.036904
 C        -4.500334        -0.487012        -2.541309
 O        -3.135736        -0.480270        -2.224457
 H         1.846783        -1.428500         0.121349
 H         2.165766         0.170454        -0.464460
 H         2.086420        -0.149765         1.363913
 H        -2.209668         1.472518        -1.313139
 H        -2.050117         2.280832         0.843871
 H        -3.109176        -1.205628        -0.233008
 H        -5.599776        -0.780579        -0.649305
 H        -5.159814         0.938164        -0.997465
 H        -4.834952        -1.468665        -2.781540
 H        -4.688207         0.049153        -3.455169
