19
Iteration:  1252
 C         1.530829        -0.372871         0.317853
 C         0.159167        -0.062545         0.284482
 C        -1.006482         0.272636         0.076267
 C        -2.501567         0.504524        -0.078329
 O        -2.987134        -0.078515         1.198517
 C        -3.167056        -0.081731        -1.312310
 C        -4.697500        -0.156827        -1.498207
 C        -4.406739         0.508850        -2.819078
 O        -3.029272         0.868111        -2.372825
 H         2.030854        -0.170575        -0.737910
 H         2.007033         0.208565         1.051831
 H         1.860817        -1.391897         0.701215
 H        -2.780254         1.547655         0.077029
 H        -2.518070        -0.947577         1.247970
 H        -2.776757        -1.057719        -1.538944
 H        -5.188564        -1.121444        -1.546269
 H        -5.258223         0.393845        -0.713276
 H        -4.208510         0.002676        -3.694921
 H        -4.929087         1.341263        -3.172865
