19
Iteration:  3560
 C         1.508851        -0.142575        -0.279884
 C         0.070101         0.021723         0.131542
 C        -1.160356         0.131190         0.003021
 C        -2.465017         0.865054        -0.023700
 O        -3.127325         1.170393         1.232493
 C        -3.405232        -0.164515        -0.825106
 C        -4.718158         0.267004        -1.568855
 C        -4.018464        -0.312503        -2.796062
 O        -2.809783        -0.641443        -2.032010
 H         1.939561        -1.116930        -0.209345
 H         1.473439         0.107268        -1.366304
 H         2.278733         0.528760         0.103710
 H        -2.357387         1.729824        -0.663238
 H        -2.781276         2.072523         1.479203
 H        -3.456551        -1.119749        -0.176204
 H        -5.555280        -0.360111        -1.309583
 H        -4.830311         1.337141        -1.553845
 H        -4.609242        -1.297549        -3.049288
 H        -3.942383         0.425312        -3.601435
