19
Iteration:  3205charge 0 multiplicity 1
 C         1.411324        -0.196623         0.524559
 C         0.028859         0.107380         0.132941
 C        -1.039739         0.412316        -0.336276
 C        -2.408962         0.776049        -0.343293
 O        -2.570531         0.922092         1.138791
 C        -3.355794        -0.386523        -1.067072
 C        -4.733226        -0.062858        -1.150459
 C        -4.398966         0.139154        -2.699301
 O        -3.018808        -0.408768        -2.505997
 H         1.377813        -1.327442         0.826158
 H         2.175073        -0.278330        -0.389998
 H         1.872541         0.431519         1.251260
 H        -2.760498         1.730124        -0.866784
 H        -3.470978         1.075846         1.418346
 H        -2.997627        -1.361594        -0.574155
 H        -5.454800        -0.842824        -0.868352
 H        -4.931873         0.969351        -0.752390
 H        -5.018532        -0.504328        -3.402328
 H        -4.479190         1.190356        -2.983410
