19
Iteration:  1713
 C         1.358992        -0.212705         0.037597
 C        -0.023510        -0.006661        -0.067005
 C        -1.200664         0.399616         0.036505
 C        -2.649889         0.474116         0.147650
 O        -3.039034        -0.184880         1.341248
 C        -3.278657        -0.199932        -1.042451
 C        -4.716631         0.159709        -1.567459
 C        -3.962182         0.507509        -2.897411
 O        -2.659210         0.488743        -2.223212
 H         1.694865         0.834918        -0.242834
 H         1.715105        -0.402489         1.047771
 H         1.736235        -0.995526        -0.793628
 H        -3.067879         1.537727         0.128753
 H        -2.446456        -0.917856         1.524666
 H        -3.007649        -1.256564        -1.161941
 H        -5.429211        -0.661952        -1.621406
 H        -5.276489         0.930899        -1.011720
 H        -4.065320        -0.137063        -3.789250
 H        -4.098111         1.510282        -3.195113
