19
Iteration:   246
 C         1.492312        -0.060616         0.014288
 C         0.058615         0.086582        -0.024446
 C        -1.146437         0.091958         0.211746
 C        -2.630449         0.078945         0.203445
 O        -3.158619        -0.970493         0.970716
 C        -3.113923        -0.148734        -1.314452
 C        -4.653636         0.123857        -1.607295
 C        -4.114051         1.090055        -2.621246
 O        -2.819156         1.073040        -2.056665
 H         2.014552         0.893539         0.198085
 H         1.710916        -0.816208         0.717657
 H         1.795966        -0.341521        -1.013884
 H        -2.989118         1.072415         0.393018
 H        -2.915008        -0.665554         1.933400
 H        -2.614925        -1.035225        -1.756254
 H        -5.408943        -0.646722        -1.847493
 H        -5.173727         0.765537        -0.741914
 H        -4.129085         0.628983        -3.667160
 H        -4.447503         2.109751        -2.649591
