19
Iteration:  2101
 C         1.520157        -0.239574        -0.152762
 C         0.124476         0.181169         0.144475
 C        -1.058797         0.329078         0.162572
 C        -2.546349         0.516797         0.166938
 O        -3.309906         0.153194         1.349561
 C        -3.228294        -0.180809        -1.045139
 C        -4.696546         0.317797        -1.505468
 C        -4.079433         0.268842        -2.899618
 O        -2.726993         0.127721        -2.354531
 H         2.086332         0.590444        -0.429255
 H         2.100531        -0.782318         0.600700
 H         1.343094        -0.838000        -1.045019
 H        -2.688146         1.676742         0.017531
 H        -3.741613        -0.763865         1.301782
 H        -3.151548        -1.320039        -0.862784
 H        -5.414564        -0.403238        -1.197571
 H        -4.804506         1.319358        -1.090473
 H        -4.514507        -0.669822        -3.541286
 H        -4.134853         1.143613        -3.579900
