19
Iteration:  4307charge 0 multiplicity 1
 C         1.458546        -0.566033         0.324394
 C         0.140550         0.050068         0.086812
 C        -0.854319         0.666570        -0.213982
 C        -2.259993         1.073264        -0.425859
 O        -3.051240         1.555880         0.742611
 C        -3.132191        -0.081542        -0.986661
 C        -4.681460         0.160412        -1.081147
 C        -4.496356        -0.714117        -2.419379
 O        -3.092528        -0.744364        -2.269947
 H         1.657271        -1.378715         1.049043
 H         1.767105        -1.043874        -0.628618
 H         2.149177         0.382327         0.596859
 H        -2.209494         1.884117        -1.192073
 H        -3.396254         0.741593         1.267642
 H        -2.929378        -0.935277        -0.378705
 H        -5.123700        -0.351369        -0.220494
 H        -4.922299         1.203125        -1.080883
 H        -5.000069        -1.624530        -2.585026
 H        -4.878795        -0.141544        -3.285813
