19
Iteration:  3770charge 0 multiplicity 1
 C         1.439597        -0.334222         0.541416
 C         0.096836         0.095785         0.203551
 C        -0.951408         0.527841        -0.202725
 C        -2.280193         0.984610        -0.509942
 O        -2.672217         1.267046         0.834078
 C        -3.064874        -0.274418        -1.103808
 C        -4.736390        -0.129337        -0.965291
 C        -4.658641        -0.253940        -2.500436
 O        -3.177308        -0.525605        -2.499070
 H         2.068396         0.539656         0.642639
 H         1.449955        -1.041616         1.415976
 H         1.796751        -1.154708        -0.258428
 H        -2.286894         1.768026        -1.283502
 H        -3.581429         1.506274         0.866905
 H        -2.778641        -1.231777        -0.562477
 H        -5.299103        -1.002569        -0.607332
 H        -4.998716         0.864367        -0.566190
 H        -5.105889        -1.245497        -2.865646
 H        -4.890991         0.515988        -3.183019
