19
Iteration:   809
 C         1.599701        -0.108682        -0.112826
 C         0.134655         0.045430         0.296769
 C        -1.097065         0.121076         0.280692
 C        -2.534429         0.315989         0.119965
 O        -3.437670        -0.396243         1.004697
 C        -3.091810        -0.134137        -1.228065
 C        -4.637606         0.143588        -1.350140
 C        -4.174718         0.572450        -2.772286
 O        -2.792806         0.808810        -2.336701
 H         1.488742        -0.833377        -0.904349
 H         1.837595         0.894840        -0.624754
 H         2.261918        -0.340967         0.618978
 H        -2.710278         1.370582         0.312441
 H        -2.830761        -0.546109         1.773814
 H        -2.891611        -1.287062        -1.305807
 H        -5.366317        -0.672359        -1.313379
 H        -5.044269         0.977798        -0.777016
 H        -4.046600        -0.345007        -3.429339
 H        -4.493921         1.475877        -3.312606
