19
Iteration:  1790charge 0 multiplicity 1
 C         1.698937        -0.136387         0.202212
 C         0.202572        -0.078193         0.314156
 C        -0.989826         0.128616         0.192732
 C        -2.434425         0.359135        -0.011820
 O        -3.399512         0.003611         0.980955
 C        -3.089740        -0.183942        -1.266702
 C        -4.627685         0.071450        -1.335437
 C        -4.423559         0.622029        -2.662784
 O        -2.911794         0.455649        -2.558727
 H         2.253381         0.563246         0.874678
 H         1.866425        -1.172406         0.101568
 H         1.802482         0.400839        -0.883687
 H        -2.456464         1.384667        -0.002598
 H        -3.230944         0.433344         1.901755
 H        -2.842054        -1.277301        -1.312116
 H        -5.267462        -0.799147        -1.172468
 H        -4.899572         0.845617        -0.583482
 H        -4.660923         0.004682        -3.584716
 H        -4.716318         1.631040        -2.762151
