19
Iteration:  4781
 C         1.190099        -0.706519         0.099063
 C         0.075928         0.146129        -0.372092
 C        -1.025841         0.701709        -0.271656
 C        -2.418655         1.081731        -0.375978
 O        -2.953351         1.677141         0.812363
 C        -3.331774        -0.107649        -0.647369
 C        -4.701885         0.192845        -1.350926
 C        -4.100334        -0.727597        -2.493815
 O        -2.842883        -0.889558        -1.777690
 H         0.859948        -1.637196        -0.228440
 H         2.131979        -0.399137        -0.321522
 H         1.425760        -0.560739         1.150498
 H        -2.408789         1.850239        -1.149219
 H        -2.290840         1.734475         1.485802
 H        -3.294664        -0.687911         0.227716
 H        -5.508983        -0.213761        -0.733237
 H        -4.903198         1.212866        -1.517169
 H        -4.655676        -1.699984        -2.438961
 H        -3.952525        -0.388095        -3.549594
