19
Iteration:  1264
 C         1.565446        -0.297940         0.338367
 C         0.108605        -0.106613         0.320448
 C        -1.040053         0.169469         0.115484
 C        -2.401195         0.530503         0.040512
 O        -3.026326        -0.069879         1.128692
 C        -3.119280        -0.128654        -1.353640
 C        -4.690458        -0.150306        -1.439422
 C        -4.407318         0.575421        -2.831081
 O        -3.069880         0.837534        -2.467525
 H         1.957733         0.072844        -0.689932
 H         2.068544         0.313147         1.074157
 H         1.743704        -1.430292         0.356518
 H        -2.544154         1.572931        -0.087002
 H        -2.537156        -0.850067         1.296849
 H        -2.567247        -0.994634        -1.644375
 H        -5.180705        -1.100079        -1.464546
 H        -5.099308         0.546377        -0.710255
 H        -4.608068        -0.181955        -3.539203
 H        -4.979762         1.444969        -2.928158
