19
Iteration:  3348
 C         1.467604        -0.334503        -0.323772
 C         0.041338         0.019994        -0.044612
 C        -1.121088         0.327466         0.273391
 C        -2.470015         0.853632        -0.037627
 O        -3.237971         0.977436         1.157770
 C        -3.323442        -0.119722        -0.826823
 C        -4.645676         0.247295        -1.390108
 C        -4.023358        -0.275568        -2.799884
 O        -2.728505        -0.447489        -2.146494
 H         1.877230         0.368507        -1.110985
 H         2.057875        -0.131123         0.641132
 H         1.555776        -1.326214        -0.522272
 H        -2.425960         1.784327        -0.628284
 H        -3.349272         1.939724         1.431865
 H        -3.485316        -0.970836        -0.179747
 H        -5.509824        -0.318346        -0.973803
 H        -4.891833         1.335571        -1.445589
 H        -4.546957        -1.272537        -3.238340
 H        -4.010345         0.247474        -3.814671
