19
Iteration:  2647charge 0 multiplicity 1
 C         1.415483        -0.368119         0.210523
 C         0.141822         0.213779         0.164698
 C        -1.008343         0.461718        -0.024124
 C        -2.377993         0.674012        -0.117040
 O        -2.999234         0.512699         1.121359
 C        -3.218240        -0.344577        -1.095172
 C        -4.714936         0.069765        -1.241218
 C        -4.325591         0.313975        -2.771560
 O        -2.952021        -0.190960        -2.483708
 H         1.635322        -1.295777        -0.375994
 H         2.203988         0.393964        -0.066244
 H         1.510176        -0.823622         1.232060
 H        -2.704074         1.776612        -0.408967
 H        -2.830274         1.384798         1.497402
 H        -3.144328        -1.421373        -0.823838
 H        -5.490412        -0.697779        -0.993546
 H        -4.945838         1.014205        -0.644885
 H        -4.752278        -0.285803        -3.523941
 H        -4.295703         1.318125        -3.085429
