19
Iteration:   485
 C         1.524073         0.148439         0.135350
 C         0.063600         0.284300         0.114582
 C        -1.143390         0.159116         0.013327
 C        -2.576067         0.175987         0.096869
 O        -3.315451        -0.902757         1.016275
 C        -3.198814        -0.196239        -1.182828
 C        -4.651432         0.340676        -1.406089
 C        -4.015973         1.074994        -2.633440
 O        -2.745640         0.475352        -2.368987
 H         2.021494        -0.159662        -0.919332
 H         1.997567         1.026444         0.434738
 H         1.793756        -0.592953         0.886871
 H        -2.930315         1.071657         0.719061
 H        -2.872667        -1.784088         1.071084
 H        -3.081627        -1.306926        -1.278242
 H        -5.290468        -0.471385        -1.720178
 H        -5.209124         0.801094        -0.658133
 H        -4.554577         0.918371        -3.615498
 H        -4.014008         2.232673        -2.405710
