19
Iteration:  2995
 C         1.446989        -0.367506        -0.063259
 C         0.098340         0.125948         0.169017
 C        -1.045821         0.516585         0.012894
 C        -2.447715         0.827420        -0.014735
 O        -3.187834         0.737022         1.232176
 C        -3.175716        -0.181764        -1.012933
 C        -4.731180         0.109657        -1.333009
 C        -4.267447        -0.216650        -2.822408
 O        -2.771517        -0.168948        -2.415160
 H         1.960452        -0.144711        -1.107927
 H         2.199588         0.079061         0.715252
 H         1.481262        -1.499297         0.077773
 H        -2.610792         1.805273        -0.430006
 H        -2.700849         1.078443         2.065958
 H        -3.195250        -1.197525        -0.492363
 H        -5.431577        -0.621001        -0.924315
 H        -4.890517         1.119347        -1.031709
 H        -4.552465        -1.209590        -3.117908
 H        -4.530669         0.508168        -3.524776
