19
Iteration:  2520charge 0 multiplicity 1
 C         1.570592        -0.278232         0.323227
 C         0.222377        -0.015271         0.081760
 C        -0.975901         0.161117         0.091486
 C        -2.375006         0.602714        -0.117668
 O        -3.042641         0.665812         1.128399
 C        -3.283628        -0.245706        -1.066154
 C        -4.778749        -0.040093        -1.342830
 C        -4.421910         0.020865        -2.867852
 O        -3.019090         0.377123        -2.444513
 H         1.835046        -0.245422         1.365898
 H         1.771989        -1.284254        -0.067557
 H         2.179544         0.322712        -0.392758
 H        -2.296775         1.639051        -0.430695
 H        -2.355196         0.459242         1.731589
 H        -2.954721        -1.308208        -1.064892
 H        -5.416409        -0.794673        -0.888699
 H        -5.085865         0.964327        -1.031116
 H        -4.475134        -1.004690        -3.306293
 H        -4.805322         0.880943        -3.555127
