19
Iteration:  2924charge 0 multiplicity 1
 C         1.305754        -0.357262        -0.107691
 C        -0.038809         0.119925        -0.148713
 C        -1.159446         0.552152        -0.108904
 C        -2.611847         0.829226         0.042334
 O        -2.988988         0.616211         1.399591
 C        -3.283421        -0.218736        -0.900935
 C        -4.640531         0.262407        -1.457972
 C        -4.054015        -0.173826        -2.859226
 O        -2.611220        -0.210155        -2.179401
 H         1.327138        -1.360334        -0.415716
 H         1.993651         0.198254        -0.687387
 H         1.601758        -0.357618         1.001197
 H        -2.749299         2.002219        -0.084677
 H        -3.941914         0.233042         1.358699
 H        -3.231648        -1.177982        -0.351688
 H        -5.580237        -0.196348        -1.001312
 H        -4.587205         1.434481        -1.417707
 H        -4.398716        -1.193946        -3.099851
 H        -4.118147         0.522606        -3.791205
