19
Iteration:  3594charge 0 multiplicity 1
 C         1.538919        -0.128797        -0.063446
 C         0.050700         0.064684        -0.132467
 C        -1.084820         0.338768         0.179593
 C        -2.487813         0.643137        -0.150867
 O        -3.140479         1.216228         0.968727
 C        -3.366093        -0.395394        -0.813412
 C        -4.583916         0.321796        -1.345794
 C        -4.182762        -0.193935        -2.691334
 O        -2.870293        -0.640269        -2.120804
 H         1.890636        -1.094185        -0.357477
 H         1.871869         0.605396        -0.799585
 H         1.988115         0.042815         0.954462
 H        -2.277516         1.398666        -0.908927
 H        -2.522273         1.583449         1.611914
 H        -3.531225        -1.426226        -0.311514
 H        -5.600253         0.015682        -1.061553
 H        -4.637646         1.410504        -1.269895
 H        -4.661167        -1.211701        -3.074308
 H        -4.055741         0.416055        -3.600289
