19
Iteration:  2053
 C         1.525274        -0.122851        -0.026325
 C         0.073730        -0.162471         0.065235
 C        -1.159193         0.036174         0.051641
 C        -2.510063         0.545763         0.088640
 O        -3.280480         0.408086         1.341963
 C        -3.185429        -0.213044        -1.085390
 C        -4.642697         0.074605        -1.389533
 C        -4.154672         0.308944        -2.830302
 O        -2.738995         0.360774        -2.413660
 H         1.951933         0.650297        -0.691432
 H         1.684847         0.389514         0.902549
 H         2.102592        -1.071022        -0.078397
 H        -2.462131         1.588808        -0.081868
 H        -3.338327        -0.539224         1.565861
 H        -2.823466        -1.243920        -1.197855
 H        -5.381753        -0.763483        -1.489459
 H        -4.993451         0.998026        -0.876229
 H        -4.378636        -0.438530        -3.648921
 H        -4.506201         1.290321        -3.206728
