19
Iteration:  2079
 C         1.524764        -0.166307        -0.126716
 C         0.101574         0.032299         0.093307
 C        -1.124361         0.192666         0.317146
 C        -2.520026         0.501966         0.071352
 O        -3.199490         0.273582         1.321718
 C        -3.286132        -0.213424        -1.083132
 C        -4.708229         0.198604        -1.470484
 C        -4.101128         0.268727        -2.874776
 O        -2.735000         0.265678        -2.374434
 H         1.993629         0.645918        -0.591033
 H         1.987388        -0.242266         0.878215
 H         1.750396        -1.119683        -0.640601
 H        -2.530481         1.678277        -0.095631
 H        -3.745336        -0.501182         1.269212
 H        -3.088838        -1.336068        -1.131051
 H        -5.483778        -0.541146        -1.407099
 H        -4.870559         1.158961        -0.973696
 H        -4.511897        -0.586580        -3.611446
 H        -4.273352         1.209270        -3.428974
