19
Iteration:  1686
 C         1.311200        -0.240609        -0.083502
 C        -0.087070         0.094510        -0.091980
 C        -1.236282         0.500071         0.061223
 C        -2.738432         0.487010         0.296209
 O        -2.962590        -0.282053         1.484928
 C        -3.284168        -0.122848        -1.000359
 C        -4.663996         0.224697        -1.689012
 C        -3.934217         0.494525        -2.964721
 O        -2.584460         0.370428        -2.249221
 H         1.888025         0.457206        -0.712197
 H         1.838192        -0.050996         0.979486
 H         1.331327        -1.192223        -0.438514
 H        -3.215672         1.441026         0.529668
 H        -2.691404        -1.183170         1.263383
 H        -3.032687        -1.247845        -1.059844
 H        -5.366622        -0.644585        -1.795654
 H        -5.273376         1.002932        -1.215327
 H        -4.173982        -0.129359        -3.857480
 H        -4.037039         1.647936        -3.251266
