19
Iteration:  2351
 C         1.431850        -0.200594         0.019008
 C        -0.010391        -0.061111        -0.022859
 C        -1.158604         0.244558        -0.017310
 C        -2.527103         0.637710        -0.015549
 O        -3.036750         0.476028         1.382759
 C        -3.253693        -0.332997        -1.030489
 C        -4.673659        -0.033254        -1.401839
 C        -4.078757         0.486148        -2.739438
 O        -2.736025         0.033495        -2.385599
 H         1.859683        -0.469852        -0.952550
 H         1.923538         0.663137         0.248415
 H         1.630708        -0.973101         0.753330
 H        -2.797376         1.699623        -0.443055
 H        -3.760223         1.084515         1.242406
 H        -3.012624        -1.356720        -0.744284
 H        -5.246138        -1.006113        -1.471931
 H        -5.357182         0.623500        -0.811831
 H        -4.399037        -0.119971        -3.688474
 H        -4.312479         1.575154        -3.045108
