19
Iteration:  2258
 C         1.390346        -0.090551        -0.269113
 C        -0.004959         0.019448        -0.025613
 C        -1.193553         0.238976         0.255071
 C        -2.556681         0.548978         0.134228
 O        -3.204776         0.243894         1.378738
 C        -3.215381        -0.279923        -0.988194
 C        -4.513807         0.400802        -1.419649
 C        -3.968279         0.406386        -2.844841
 O        -2.722832        -0.162549        -2.351955
 H         1.790595        -1.080482        -0.011649
 H         1.756085        -0.078763        -1.333585
 H         1.887930         0.647696         0.384711
 H        -2.854484         1.616205        -0.102977
 H        -4.200973         0.309137         1.365447
 H        -3.388503        -1.347710        -0.742639
 H        -5.482584        -0.041302        -1.512469
 H        -4.720773         1.338630        -0.945188
 H        -4.602351        -0.208506        -3.687329
 H        -3.677390         1.360313        -3.397783
