19
Iteration:  3010
 C         1.480709        -0.321376         0.006200
 C         0.073143         0.068282         0.133873
 C        -1.100283         0.373111        -0.024038
 C        -2.505851         0.803177        -0.106122
 O        -3.194551         0.848735         1.172520
 C        -3.193268        -0.198920        -0.950214
 C        -4.579875         0.056928        -1.281794
 C        -4.212832        -0.179125        -2.720748
 O        -2.861160        -0.115565        -2.400985
 H         1.834889         0.205878        -0.882057
 H         2.065761        -0.000836         0.896977
 H         1.614667        -1.363285        -0.212541
 H        -2.563386         1.795843        -0.572529
 H        -2.511576         0.377342         1.658153
 H        -2.873264        -1.192852        -0.688300
 H        -5.345436        -0.535806        -0.772591
 H        -5.015011         1.067959        -1.204881
 H        -4.485853        -1.161855        -3.163247
 H        -4.466482         0.626749        -3.555929
