19
Iteration:   700charge 0 multiplicity 1
 C         1.350718        -0.400953         0.263950
 C         0.067260         0.183532         0.042617
 C        -1.138123         0.292982         0.106270
 C        -2.537530         0.400988         0.013445
 O        -3.013271        -0.334467         1.196055
 C        -3.062304        -0.177491        -1.334120
 C        -4.535003        -0.297503        -1.622502
 C        -4.339149         0.806001        -2.618405
 O        -2.914709         0.972476        -2.312451
 H         1.506936        -0.757600         1.308386
 H         1.671783        -1.217912        -0.492165
 H         2.132874         0.285812         0.081163
 H        -2.967908         1.396364         0.151622
 H        -2.246924        -0.735414         1.754363
 H        -2.681950        -1.096128        -1.661154
 H        -4.784913        -1.307464        -2.017331
 H        -5.253182         0.040258        -0.895896
 H        -4.616274         0.449950        -3.598769
 H        -4.676236         1.823291        -2.452536
