19
Iteration:  2145
 C         1.352918        -0.200368        -0.189736
 C        -0.066096         0.105559        -0.090506
 C        -1.153528         0.479292         0.236212
 C        -2.622807         0.584807         0.157654
 O        -3.168033        -0.013451         1.346601
 C        -3.297852        -0.175899        -0.986804
 C        -4.573011         0.441108        -1.463072
 C        -3.946472         0.262579        -2.918167
 O        -2.660240        -0.008064        -2.322887
 H         1.934679         0.345460         0.459151
 H         1.441131        -1.142141         0.330037
 H         1.696602        -0.189706        -1.219646
 H        -2.912447         1.663749         0.031873
 H        -2.407198        -0.213922         1.990597
 H        -3.487321        -1.146629        -0.536692
 H        -5.511333        -0.047283        -1.441241
 H        -4.684016         1.506972        -1.276686
 H        -4.224580        -0.724834        -3.474771
 H        -4.000868         1.081951        -3.649742
