19
Iteration:  4172
 C         1.419694        -0.390385        -0.014118
 C         0.047642         0.070678        -0.100573
 C        -1.110793         0.420498        -0.085610
 C        -2.411381         0.915773        -0.316799
 O        -2.911441         1.517850         0.958941
 C        -3.383344        -0.240950        -0.648541
 C        -4.692389         0.273864        -1.461762
 C        -4.143393        -0.450658        -2.634769
 O        -2.932153        -0.848443        -1.951815
 H         2.243541         0.303020         0.463173
 H         1.402797        -1.209473         0.820655
 H         1.653209        -0.976111        -0.901004
 H        -2.636475         1.668157        -1.154748
 H        -2.266199         2.207083         1.306756
 H        -3.597497        -1.027548         0.092048
 H        -5.640205        -0.194381        -1.166026
 H        -4.860420         1.355452        -1.374105
 H        -4.713417        -1.332453        -2.944251
 H        -3.889341         0.076345        -3.573925
