19
Iteration:  1209
 C         1.390373        -0.478771         0.314953
 C         0.075028         0.149745        -0.152863
 C        -1.138623         0.390486         0.014665
 C        -2.529994         0.522961         0.066806
 O        -3.004126        -0.209860         1.295340
 C        -3.114930        -0.040094        -1.196062
 C        -4.589179        -0.162741        -1.500969
 C        -4.240860         0.446403        -2.860038
 O        -2.925187         0.906735        -2.273614
 H         1.783459        -1.287263        -0.461537
 H         2.020049         0.315254         0.633126
 H         1.025530        -1.119973         1.217138
 H        -2.899262         1.522570         0.086301
 H        -2.496088        -1.003480         1.269389
 H        -2.568548        -0.948674        -1.509046
 H        -4.955742        -1.163931        -1.423845
 H        -5.304038         0.450153        -0.907612
 H        -4.228816        -0.316434        -3.728711
 H        -4.818690         1.255056        -3.226648
