19
Iteration:  3481charge 0 multiplicity 1
 C         1.187521        -0.442434        -0.317388
 C        -0.013091         0.348335        -0.319812
 C        -1.189399         0.665491        -0.140930
 C        -2.582074         0.963499         0.007828
 O        -3.189195         0.932653         1.391842
 C        -3.398913        -0.184298        -0.684018
 C        -4.504132         0.381843        -1.553898
 C        -3.795843        -0.411158        -2.757021
 O        -2.615646        -0.718885        -1.952327
 H         1.513810        -0.520281         0.746103
 H         0.978145        -1.532139        -0.529545
 H         1.913120        -0.067768        -0.905599
 H        -2.847326         1.873788        -0.477821
 H        -2.458664         0.379826         1.816973
 H        -3.526539        -1.104931        -0.050728
 H        -5.552841         0.165728        -1.482804
 H        -4.519131         1.464309        -1.618973
 H        -4.475696        -1.298195        -3.073722
 H        -3.682244         0.133390        -3.724198
