19
Iteration:   267
 C         1.410602        -0.058939        -0.157266
 C        -0.031538         0.168684         0.004588
 C        -1.193480         0.054821         0.325784
 C        -2.612532         0.105618         0.156555
 O        -3.308837        -0.931976         0.927679
 C        -3.062140        -0.071708        -1.223121
 C        -4.540134         0.118738        -1.458817
 C        -4.105782         1.034704        -2.654388
 O        -2.687368         1.039724        -2.080827
 H         1.947181         0.772789         0.469704
 H         1.570722        -1.003971         0.313813
 H         1.820665         0.003157        -1.175019
 H        -2.953257         1.098639         0.521907
 H        -2.608759        -1.407272         1.320363
 H        -2.621659        -0.996991        -1.655008
 H        -4.923617        -0.860867        -1.695267
 H        -5.217428         0.619665        -0.653571
 H        -4.006671         0.582689        -3.664431
 H        -4.544564         2.003691        -2.714469
