19
Iteration:  2023charge 0 multiplicity 1
 C         1.523510        -0.163866         0.111519
 C         0.087258        -0.180760         0.037796
 C        -1.109253         0.132258         0.156117
 C        -2.449075         0.490274        -0.008778
 O        -3.208150         0.361016         1.187562
 C        -3.201227        -0.261649        -1.138083
 C        -4.660789        -0.002713        -1.365912
 C        -4.218401         0.424669        -2.851686
 O        -2.864128         0.396440        -2.339951
 H         2.008574         0.066512        -0.777215
 H         1.645767         0.749972         0.659115
 H         2.035874        -1.064282         0.598707
 H        -2.410577         1.600041        -0.503357
 H        -2.636717         0.370203         1.951415
 H        -2.744234        -1.308053        -1.209845
 H        -5.255581        -0.897372        -1.497783
 H        -5.262619         0.661698        -0.745633
 H        -4.447865        -0.252397        -3.805631
 H        -4.537822         1.459908        -2.989855
