19
Iteration:   433
 C         1.327067         0.237576        -0.158937
 C        -0.029141         0.040582         0.211796
 C        -1.229859         0.193536         0.272823
 C        -2.667288         0.053704         0.278792
 O        -3.139528        -0.856549         1.226335
 C        -3.177591        -0.269603        -1.254830
 C        -4.613220         0.295691        -1.578927
 C        -3.946549         1.134995        -2.736418
 O        -2.625106         0.650064        -2.340399
 H         1.743840        -0.716496        -0.642314
 H         1.388496         1.036358        -0.935050
 H         2.123441         0.172055         0.711048
 H        -3.081854         1.102292         0.568976
 H        -3.230510        -1.765177         0.718283
 H        -2.908618        -1.323122        -1.504292
 H        -5.391152        -0.364343        -1.976841
 H        -5.055593         0.634196        -0.638027
 H        -4.352218         0.846401        -3.718959
 H        -4.047034         2.190626        -2.623326
