19
Iteration:  3536
 C         1.434137        -0.232018        -0.344065
 C         0.000879        -0.003632        -0.016736
 C        -1.117847         0.421391         0.118252
 C        -2.486037         0.856702        -0.000030
 O        -3.082157         1.054578         1.283980
 C        -3.451679        -0.083747        -0.776827
 C        -4.738613         0.272755        -1.637461
 C        -3.926616        -0.376690        -2.845371
 O        -2.796072        -0.635353        -1.957563
 H         1.991491        -1.031644         0.250540
 H         1.649851        -0.431847        -1.454468
 H         1.986185         0.644787        -0.190657
 H        -2.453799         1.735380        -0.625718
 H        -2.626559         1.905586         1.567292
 H        -3.544120        -1.042030        -0.088237
 H        -5.608955        -0.304254        -1.413453
 H        -4.881557         1.322717        -1.823323
 H        -4.319904        -1.384538        -3.183908
 H        -3.806072         0.377358        -3.677052
