19
Iteration:  2498charge 0 multiplicity 1
 C         1.637335        -0.353814         0.310354
 C         0.198315        -0.000878         0.079132
 C        -0.998650         0.256418        -0.020815
 C        -2.443513         0.678262        -0.081771
 O        -3.151054         0.533360         1.271406
 C        -3.130573        -0.183069        -1.197625
 C        -4.741414         0.001235        -1.296681
 C        -4.429263         0.045502        -2.751360
 O        -2.998538         0.268861        -2.586794
 H         1.887176         0.070132         1.284439
 H         1.742910        -1.437349         0.372047
 H         2.340104        -0.049119        -0.537237
 H        -2.492721         1.814551        -0.321111
 H        -2.674081         1.309286         1.738033
 H        -2.825407        -1.247776        -1.046423
 H        -5.191276        -0.878254        -0.869533
 H        -5.206940         0.936503        -0.960524
 H        -4.620327        -0.913235        -3.279302
 H        -4.769903         1.006081        -3.307835
