19
Iteration:  1332
 C         1.664712        -0.174083         0.423045
 C         0.194354         0.008334         0.149481
 C        -1.020261         0.009261         0.108470
 C        -2.415381         0.370343        -0.153308
 O        -3.207314        -0.057596         0.985104
 C        -3.166327        -0.270639        -1.349548
 C        -4.713163        -0.059056        -1.291548
 C        -4.411729         0.767910        -2.585512
 O        -2.968388         0.647381        -2.519124
 H         2.136495         0.781291         0.410985
 H         1.793337        -0.542399         1.475952
 H         2.071725        -0.764659        -0.472343
 H        -2.514309         1.431662        -0.183231
 H        -2.828387         0.209520         1.837093
 H        -2.989549        -1.318783        -1.543349
 H        -5.277301        -0.987733        -1.420390
 H        -5.061352         0.554605        -0.482480
 H        -4.700119         0.312379        -3.497348
 H        -4.502794         1.823516        -2.678274
