19
Iteration:  3122charge 0 multiplicity 1
 C         1.572596        -0.239061         0.452438
 C         0.141909         0.100207         0.246896
 C        -0.960409         0.433270        -0.199708
 C        -2.380391         0.690771        -0.344768
 O        -3.061563         0.878808         1.046812
 C        -3.145321        -0.398668        -1.113670
 C        -4.634652        -0.006599        -1.090351
 C        -4.514241         0.140335        -2.643053
 O        -3.063606        -0.339645        -2.565098
 H         2.000713         0.060080         1.352896
 H         1.825671        -1.230227         0.193832
 H         2.069636         0.335160        -0.386790
 H        -2.565452         1.567629        -0.994170
 H        -2.378048         1.432333         1.485992
 H        -2.908693        -1.422948        -0.889862
 H        -5.279834        -0.816684        -0.698974
 H        -4.986415         0.896185        -0.637300
 H        -5.125252        -0.545698        -3.268663
 H        -4.698574         1.214616        -3.039982
