19
Iteration:  2131
 C         1.377788        -0.249852        -0.133610
 C        -0.013331         0.195441        -0.009348
 C        -1.157301         0.412172         0.176105
 C        -2.580201         0.611277         0.169728
 O        -3.242942         0.021103         1.299022
 C        -3.215452        -0.137844        -1.017924
 C        -4.632639         0.444995        -1.522145
 C        -4.009401         0.235368        -2.860555
 O        -2.656682        -0.020377        -2.293414
 H         2.025253         0.651273         0.009939
 H         1.704390        -1.214140         0.216902
 H         1.529015        -0.419829        -1.286207
 H        -2.818862         1.619592         0.196164
 H        -2.650993        -0.625200         1.625915
 H        -3.133659        -1.201478        -0.876414
 H        -5.450229        -0.204094        -1.123810
 H        -4.742628         1.461644        -1.072857
 H        -4.510796        -0.540297        -3.344051
 H        -3.883570         1.080567        -3.520583
