19
Iteration:  1072charge 0 multiplicity 1
 C         1.407590         0.069946        -0.109540
 C        -0.006877        -0.147164        -0.060937
 C        -1.167905         0.015950         0.174620
 C        -2.528572         0.407630         0.107361
 O        -3.349786        -0.073122         1.214787
 C        -3.144850        -0.252961        -1.129966
 C        -4.656447         0.033090        -1.481927
 C        -4.015780         0.756051        -2.651261
 O        -2.636149         0.468679        -2.265041
 H         1.948492        -0.408584         0.785326
 H         1.992423        -0.261940        -1.084289
 H         1.697911         1.073777         0.237273
 H        -2.761110         1.561940        -0.036864
 H        -3.067906        -1.012148         1.515712
 H        -2.918577        -1.278027        -1.261325
 H        -5.313393        -0.833041        -1.612753
 H        -5.134431         0.815436        -0.883697
 H        -4.141180         0.318496        -3.621124
 H        -4.266750         1.860235        -2.875872
