19
Iteration:  4347charge 0 multiplicity 1
 C         1.432267        -0.417106         0.278492
 C         0.134163         0.025696         0.034926
 C        -1.017243         0.435528        -0.030198
 C        -2.302185         0.812612        -0.437724
 O        -2.902685         1.736422         0.528933
 C        -3.230686        -0.310834        -0.871242
 C        -4.684292         0.008142        -0.952714
 C        -4.486969        -0.569025        -2.470192
 O        -3.036963        -0.502799        -2.267607
 H         1.604340        -1.400659         0.812803
 H         2.044837        -0.200085        -0.605926
 H         1.827196         0.156946         1.062528
 H        -2.225019         1.536981        -1.234010
 H        -2.507713         1.576130         1.363766
 H        -3.131246        -1.337523        -0.260209
 H        -5.400074        -0.443130        -0.246241
 H        -4.999548         1.066244        -1.073327
 H        -4.738224        -1.684510        -2.663575
 H        -4.672095        -0.042133        -3.442856
