19
Iteration:  2895charge 0 multiplicity 1
 C         1.377720        -0.321329        -0.214726
 C        -0.018630         0.009188        -0.094406
 C        -1.120136         0.501838         0.032669
 C        -2.607294         0.796870         0.106301
 O        -2.975518         0.714361         1.454698
 C        -3.401313        -0.188878        -0.911149
 C        -4.719629         0.252608        -1.577278
 C        -3.958459        -0.118632        -2.954111
 O        -2.679230        -0.231862        -2.149509
 H         1.686858        -1.339355         0.200377
 H         1.820118        -0.029567        -1.183285
 H         1.870931         0.331454         0.583431
 H        -2.715562         1.814473        -0.039611
 H        -3.559204        -0.041030         1.558262
 H        -3.534169        -1.175055        -0.381270
 H        -5.488578        -0.409343        -1.209934
 H        -5.087200         1.234777        -1.450379
 H        -4.370872        -1.064408        -3.330981
 H        -3.853189         0.548779        -3.732372
