19
Iteration:  2935
 C         1.336063        -0.435107        -0.093974
 C        -0.016725         0.231422        -0.117277
 C        -1.196915         0.547384        -0.170913
 C        -2.565792         0.836002         0.082419
 O        -3.043081         0.579036         1.399618
 C        -3.253332        -0.136446        -0.905835
 C        -4.567018         0.282443        -1.404465
 C        -4.041356        -0.221755        -2.791697
 O        -2.679285        -0.227210        -2.258164
 H         1.437566        -1.316665        -0.629544
 H         2.072259         0.253754        -0.405301
 H         1.595422        -0.601945         1.005665
 H        -2.926367         1.832787        -0.430802
 H        -4.038553         0.519123         1.350111
 H        -3.283081        -1.170700        -0.547326
 H        -5.469234        -0.323753        -1.095370
 H        -4.871200         1.410341        -1.321882
 H        -4.383151        -1.223126        -3.146497
 H        -3.991222         0.512242        -3.679588
