19
Iteration:  3028
 C         1.490344        -0.224707         0.064289
 C         0.041843        -0.039873         0.011649
 C        -1.087569         0.342428         0.061644
 C        -2.431118         0.767656        -0.153076
 O        -3.091512         0.941936         1.105319
 C        -3.187366        -0.306318        -1.007279
 C        -4.737585         0.017576        -1.246507
 C        -4.298592        -0.135608        -2.716644
 O        -2.790931        -0.051590        -2.376500
 H         2.081156         0.659373        -0.443907
 H         1.732019        -0.240846         1.225304
 H         1.777283        -1.258376        -0.267726
 H        -2.442853         1.760866        -0.587260
 H        -3.249421         0.081250         1.500774
 H        -2.870674        -1.309404        -0.507528
 H        -5.450200        -0.660575        -0.793409
 H        -5.001788         1.006828        -0.839034
 H        -4.431481        -1.115450        -3.152515
 H        -4.593053         0.556469        -3.440255
