19
Iteration:  1023charge 0 multiplicity 1
 C         1.488349         0.197323        -0.096260
 C         0.067674         0.027372         0.052941
 C        -1.141136        -0.053240         0.178195
 C        -2.667794         0.181673         0.116566
 O        -3.172459        -0.093202         1.395032
 C        -3.389945        -0.403473        -1.172855
 C        -4.682906         0.253626        -1.618160
 C        -3.933016         0.961936        -2.701906
 O        -2.684454         0.203570        -2.359016
 H         2.005096         0.516844         0.796897
 H         1.835820        -0.718994        -0.454484
 H         1.851138         1.006947        -0.829417
 H        -2.906630         1.293482         0.100400
 H        -2.927283        -0.912671         1.775593
 H        -3.474214        -1.534274        -1.154146
 H        -5.415910        -0.435650        -2.104699
 H        -5.330118         0.760559        -0.871711
 H        -4.259396         1.004992        -3.785542
 H        -3.652099         2.013444        -2.609489
