19
Iteration:  4394
 C         1.627115        -0.287553         0.341473
 C         0.210970        -0.004592         0.204627
 C        -0.945535         0.319701        -0.044163
 C        -2.226937         0.880834        -0.414492
 O        -2.805203         1.732726         0.561200
 C        -3.355063        -0.218887        -0.869420
 C        -4.891425        -0.086242        -1.084288
 C        -4.605614        -0.496592        -2.530411
 O        -3.128277        -0.678462        -2.280556
 H         1.722548        -1.330117         0.017311
 H         2.248106         0.435769        -0.190227
 H         1.973116        -0.579893         1.364136
 H        -2.013235         1.457848        -1.341181
 H        -2.289710         2.604552         0.551027
 H        -3.109745        -1.043397        -0.130251
 H        -5.389891        -0.830132        -0.467580
 H        -5.329274         0.850116        -0.793357
 H        -4.963257        -1.358998        -3.093040
 H        -4.768215         0.419878        -3.129904
