19
Iteration:  4869
 C         1.408143        -0.494768        -0.064470
 C         0.038705        -0.115771         0.153471
 C        -1.072986         0.444133         0.041730
 C        -2.341651         0.959550        -0.408113
 O        -2.835192         1.996298         0.569263
 C        -3.268491        -0.203839        -0.692470
 C        -4.757053         0.072297        -1.232033
 C        -4.327902        -0.621738        -2.479508
 O        -2.936125        -0.819881        -1.967081
 H         1.862236        -0.428053        -1.108291
 H         2.240898         0.070900         0.509014
 H         1.718897        -1.582230         0.312019
 H        -2.220261         1.399120        -1.445066
 H        -3.767515         2.064712         0.497338
 H        -3.271593        -0.919270         0.146866
 H        -5.346609        -0.523463        -0.506412
 H        -5.052831         1.097727        -1.309116
 H        -4.783501        -1.649708        -2.578411
 H        -4.267699        -0.047050        -3.442149
