19
Iteration:  4790charge 0 multiplicity 1
 C         1.217537        -0.730371         0.069922
 C         0.137926         0.173360        -0.367318
 C        -0.991654         0.689721        -0.265905
 C        -2.410442         1.106208        -0.357921
 O        -3.032601         1.632746         0.758468
 C        -3.311181        -0.058148        -0.641592
 C        -4.672543         0.156947        -1.313458
 C        -4.094997        -0.712327        -2.448540
 O        -2.906289        -0.859752        -1.787396
 H         1.192683        -1.907952        -0.087226
 H         2.185031        -0.368750        -0.298795
 H         1.134129        -0.788697         1.232796
 H        -2.476246         1.819324        -1.204837
 H        -2.323427         1.988107         1.288526
 H        -3.490357        -0.657745         0.273186
 H        -5.538087        -0.241945        -0.797872
 H        -4.833098         1.193530        -1.425694
 H        -4.530717        -1.716052        -2.571633
 H        -3.882070        -0.410634        -3.521154
