19
Iteration:    64charge 0 multiplicity 1
 C         1.496970        -0.078915         0.460416
 C         0.124146        -0.002238         0.063895
 C        -1.066490         0.046588        -0.176827
 C        -2.578167         0.079106        -0.109836
 O        -2.858858        -0.954363         0.863734
 C        -3.225127        -0.120201        -1.413136
 C        -4.729280         0.133585        -1.469130
 C        -4.288986         1.333548        -2.219447
 O        -2.920059         0.945172        -2.278346
 H         2.034394        -1.121549         0.354325
 H         1.999391         0.483669        -0.379833
 H         1.762542         0.419181         1.361573
 H        -2.886441         1.062545         0.269701
 H        -3.687041        -0.743077         1.301907
 H        -2.915421        -1.095737        -1.835010
 H        -5.276062        -0.564411        -2.088816
 H        -5.423573         0.060486        -0.547314
 H        -4.659985         1.338933        -3.225101
 H        -4.362205         2.356354        -1.692338
