19
Iteration:  1244charge 0 multiplicity 1
 C         1.573539        -0.418847         0.319935
 C         0.112271        -0.030422         0.228111
 C        -1.028783         0.370736        -0.003970
 C        -2.514177         0.451286        -0.061380
 O        -2.990543        -0.097488         1.232799
 C        -3.166480        -0.071480        -1.264358
 C        -4.705103        -0.180111        -1.506144
 C        -4.377884         0.527403        -2.860313
 O        -3.010650         0.896844        -2.327961
 H         2.110165        -0.385166        -0.625743
 H         2.215201         0.274869         0.993244
 H         1.720807        -1.457659         0.834995
 H        -2.803521         1.464518         0.023367
 H        -2.642799        -0.970866         1.402965
 H        -2.715521        -1.069665        -1.462570
 H        -5.031142        -1.200040        -1.499113
 H        -5.400851         0.455845        -1.001836
 H        -4.280408        -0.306293        -3.649066
 H        -4.968418         1.409053        -3.183061
