19
Iteration:   225charge 0 multiplicity 1
 C         1.577726        -0.052334         0.119613
 C         0.100337        -0.042937         0.127198
 C        -1.107122         0.151274        -0.048168
 C        -2.601874         0.048657         0.152057
 O        -3.048418        -1.016235         1.083480
 C        -3.288231        -0.057540        -1.303688
 C        -4.687033         0.077392        -1.622770
 C        -4.179447         1.187327        -2.673899
 O        -2.812063         1.085363        -2.099663
 H         1.933905         0.881276        -0.048727
 H         2.016498        -0.418105         1.006189
 H         1.943486        -0.624726        -0.776390
 H        -2.935169         1.009419         0.473851
 H        -3.428020        -0.498971         1.796735
 H        -3.060074        -1.069705        -1.625744
 H        -5.264141        -0.765469        -1.982002
 H        -5.435258         0.402194        -0.752923
 H        -4.284136         0.792041        -3.738299
 H        -4.575446         2.194177        -2.563273
