19
Iteration:    19charge 0 multiplicity 1
 C         1.521972        -0.046735         0.247258
 C         0.073349         0.089855        -0.159477
 C        -1.121795         0.027425         0.088581
 C        -2.578246         0.041910         0.020167
 O        -3.044414        -0.985333         0.952072
 C        -3.172187        -0.158235        -1.398071
 C        -4.692618         0.098003        -1.468328
 C        -4.255543         1.343477        -2.339357
 O        -2.778548         1.070457        -2.176124
 H         1.520919        -0.872066         1.044603
 H         2.228019        -0.461944        -0.509582
 H         1.881646         0.868046         0.670412
 H        -2.922517         1.011986         0.388972
 H        -3.323469        -1.702071         0.401370
 H        -2.808867        -1.104177        -1.859201
 H        -5.246762        -0.624868        -2.073177
 H        -5.352026         0.101098        -0.513026
 H        -4.591828         1.044613        -3.321596
 H        -4.599243         2.388313        -2.004740
