19
Iteration:  4600
 C         1.566228        -0.459650         0.060831
 C         0.224829         0.077228         0.098765
 C        -0.933518         0.538847         0.031825
 C        -2.286768         0.922180        -0.352155
 O        -2.981128         1.620795         0.727853
 C        -3.393973        -0.180900        -0.836114
 C        -4.783608         0.305641        -1.338853
 C        -4.408287        -0.648368        -2.572927
 O        -3.089284        -0.937461        -1.974269
 H         2.175216         0.287210         0.680197
 H         1.625240        -1.477503         0.418118
 H         2.100323        -0.424106        -0.865763
 H        -2.037037         1.484810        -1.255879
 H        -2.269196         2.267639         1.035138
 H        -3.541918        -0.682800         0.069029
 H        -5.719707         0.110530        -0.854777
 H        -4.933434         1.355507        -1.561037
 H        -4.926486        -1.611660        -2.742836
 H        -4.261323        -0.138178        -3.541899
