19
Iteration:   873
 C         1.447064         0.053574         0.051733
 C         0.004664        -0.012895        -0.051774
 C        -1.182395         0.161036         0.046794
 C        -2.636157         0.253209         0.155257
 O        -3.109558        -0.375173         1.416873
 C        -3.309037        -0.272846        -1.118168
 C        -4.665359         0.294570        -1.604345
 C        -4.038147         0.837580        -2.872797
 O        -2.693301         0.431502        -2.292486
 H         1.844425         0.401706        -0.845678
 H         1.816230         0.911333         0.688245
 H         2.006056        -0.859844         0.345850
 H        -2.756184         1.364402         0.207712
 H        -2.747437        -1.224606         1.428017
 H        -3.096831        -1.317611        -1.316347
 H        -5.488252        -0.424626        -1.574198
 H        -4.944400         1.124758        -0.969064
 H        -4.400645         0.209041        -3.641142
 H        -3.927573         1.892283        -3.053599
