19
Iteration:  3876
 C         1.527810        -0.355375         0.249019
 C         0.059011        -0.197528         0.246965
 C        -0.997228         0.306820        -0.112105
 C        -2.349872         0.960836        -0.294462
 O        -2.883203         1.681946         0.790186
 C        -3.218060        -0.175719        -0.973444
 C        -4.682471        -0.079810        -1.134016
 C        -4.527873        -0.675707        -2.557174
 O        -2.996056        -0.281649        -2.359948
 H         2.169688        -0.688183         1.081777
 H         1.820692        -1.012945        -0.609391
 H         1.815376         0.590236        -0.061018
 H        -2.344692         1.699973        -1.149335
 H        -3.044402         1.226770         1.592164
 H        -3.074894        -1.125294        -0.415805
 H        -5.395661        -0.747306        -0.630567
 H        -5.124871         0.930899        -1.113799
 H        -4.623548        -1.784427        -2.635531
 H        -4.951777        -0.106108        -3.518601
