19
Iteration:  4576
 C         1.532061        -0.344227         0.193561
 C         0.101825         0.019298        -0.093426
 C        -1.052593         0.330424        -0.145514
 C        -2.376953         0.919950        -0.329329
 O        -2.886619         1.705230         0.685586
 C        -3.351692        -0.293939        -0.685329
 C        -4.693509         0.261742        -1.282846
 C        -4.382089        -0.538147        -2.529723
 O        -3.020995        -0.857389        -2.039262
 H         2.002570         0.600829         0.623511
 H         1.483479        -1.113075         0.955365
 H         2.214794        -0.722697        -0.534014
 H        -2.285887         1.366290        -1.318827
 H        -2.179515         1.979805         1.241646
 H        -3.385978        -1.006048         0.083113
 H        -5.708623         0.095701        -0.877544
 H        -4.752676         1.318050        -1.458800
 H        -4.974810        -1.462086        -2.549989
 H        -4.309011        -0.114864        -3.510845
