19
Iteration:  1863charge 0 multiplicity 1
 C         1.597317        -0.251405         0.605260
 C         0.253952         0.044223         0.073578
 C        -0.909640         0.229147        -0.257410
 C        -2.514653         0.477128        -0.057880
 O        -2.983316         0.222394         1.240359
 C        -3.233612        -0.334499        -1.298661
 C        -4.765659        -0.181947        -1.437334
 C        -4.464247         0.683330        -2.708043
 O        -2.981339         0.462622        -2.474332
 H         1.417969        -0.858142         1.515177
 H         2.047764        -0.882385        -0.196387
 H         2.104294         0.553865         0.899575
 H        -2.719044         1.607828        -0.323905
 H        -2.676743        -0.655086         1.523070
 H        -2.935229        -1.386782        -1.402210
 H        -5.289675        -1.077799        -1.769100
 H        -5.446290         0.454136        -0.862371
 H        -5.029993         0.247701        -3.534134
 H        -4.684540         1.818718        -2.619039
