19
Iteration:  2436charge 0 multiplicity 1
 C         1.364302        -0.523451         0.219541
 C         0.131213         0.215677         0.159431
 C        -1.001519         0.644447        -0.068707
 C        -2.466438         0.722023        -0.076781
 O        -2.985585         0.351235         1.200381
 C        -3.079013        -0.251610        -1.140245
 C        -4.618980        -0.005820        -1.244383
 C        -4.358543         0.284783        -2.709940
 O        -2.933240         0.018846        -2.552613
 H         2.183325         0.216691        -0.003725
 H         1.465189        -1.003011         1.283628
 H         1.609188        -1.236080        -0.538182
 H        -2.926721         1.675420        -0.177760
 H        -3.932922         0.695839         1.155401
 H        -2.733678        -1.291194        -0.987353
 H        -5.125643        -0.943915        -1.055033
 H        -5.119811         0.817888        -0.734517
 H        -4.911119        -0.385253        -3.397395
 H        -4.536906         1.269155        -3.051681
