19
Iteration:  4779
 C         1.183942        -0.682914         0.099017
 C         0.073329         0.133794        -0.358336
 C        -1.042702         0.702205        -0.273333
 C        -2.405926         1.084255        -0.383328
 O        -2.940229         1.691235         0.831256
 C        -3.336458        -0.124327        -0.663376
 C        -4.701036         0.202148        -1.351562
 C        -4.112081        -0.740020        -2.495275
 O        -2.824310        -0.892486        -1.772063
 H         0.822617        -1.696847        -0.285139
 H         2.147138        -0.462723        -0.400420
 H         1.417955        -0.527463         1.190082
 H        -2.470735         1.839201        -1.182504
 H        -2.282804         1.679542         1.510753
 H        -3.267549        -0.712837         0.267026
 H        -5.512738        -0.247253        -0.787158
 H        -4.906207         1.224330        -1.597380
 H        -4.700198        -1.663718        -2.476795
 H        -4.008339        -0.333077        -3.541883
