19
Iteration:  1070charge 0 multiplicity 1
 C         1.420736         0.084948        -0.106098
 C        -0.025903        -0.160282        -0.061666
 C        -1.181683         0.003518         0.158274
 C        -2.538818         0.382727         0.111227
 O        -3.339094        -0.071639         1.234966
 C        -3.159060        -0.241117        -1.118163
 C        -4.643469         0.041417        -1.501620
 C        -4.008505         0.779872        -2.649595
 O        -2.628356         0.450919        -2.267871
 H         1.861522        -0.337862         0.745087
 H         2.019405        -0.258960        -1.041361
 H         1.729343         1.168656         0.195473
 H        -2.652424         1.536500        -0.112413
 H        -3.076664        -0.957058         1.484288
 H        -2.887525        -1.280175        -1.197487
 H        -5.292059        -0.782986        -1.617229
 H        -5.146991         0.737113        -0.857088
 H        -4.201523         0.341166        -3.614165
 H        -4.326682         1.826337        -2.907560
