19
Iteration:  2504
 C         1.655447        -0.370713         0.295678
 C         0.186650         0.017657         0.076961
 C        -1.021168         0.235505         0.006799
 C        -2.422696         0.640720        -0.054213
 O        -3.116855         0.573720         1.243802
 C        -3.159070        -0.158600        -1.193868
 C        -4.739687        -0.008642        -1.308761
 C        -4.418135         0.044873        -2.790513
 O        -3.023727         0.278789        -2.546693
 H         1.868576         0.131029         1.260316
 H         1.811720        -1.468356         0.328639
 H         2.381391         0.144397        -0.314597
 H        -2.439013         1.630396        -0.489726
 H        -2.629411         1.099372         1.865266
 H        -2.893734        -1.210181        -1.047833
 H        -5.377499        -0.882101        -0.992469
 H        -5.109709         0.955893        -0.901070
 H        -4.501951        -0.892280        -3.387912
 H        -4.933997         0.815083        -3.337405
