19
Iteration:  1249charge 0 multiplicity 1
 C         1.546478        -0.400088         0.313763
 C         0.134157        -0.048029         0.263387
 C        -1.003005         0.310102         0.051068
 C        -2.517435         0.475067        -0.100331
 O        -2.987180        -0.082787         1.215996
 C        -3.162924        -0.067807        -1.288781
 C        -4.693361        -0.164654        -1.507620
 C        -4.403520         0.514846        -2.826451
 O        -3.018345         0.879456        -2.350999
 H         2.058474        -0.235020        -0.667661
 H         2.120435         0.175153         1.044277
 H         1.833310        -1.291802         0.767297
 H        -2.814747         1.570336         0.107949
 H        -2.550722        -1.000187         1.319656
 H        -2.765571        -1.109016        -1.485904
 H        -5.162817        -1.197255        -1.511453
 H        -5.368656         0.425205        -0.806362
 H        -4.199007        -0.132061        -3.715150
 H        -4.961926         1.398974        -3.220459
