19
Iteration:  1163charge 0 multiplicity 1
 C         1.401198        -0.443650         0.051507
 C         0.006557         0.038927         0.212549
 C        -1.080179         0.652833         0.113676
 C        -2.650296         0.523922         0.131126
 O        -3.089174        -0.294939         1.160303
 C        -3.075427        -0.076921        -1.199824
 C        -4.550551        -0.109199        -1.437050
 C        -4.181911         0.524701        -2.843036
 O        -2.841419         0.744930        -2.379338
 H         1.228014        -1.569491        -0.412487
 H         1.879993         0.251710        -0.630103
 H         1.900276        -0.594549         1.037118
 H        -3.184706         1.486772         0.415428
 H        -2.467380        -1.021529         1.415450
 H        -2.637823        -1.050007        -1.054670
 H        -5.109405        -1.089915        -1.263559
 H        -5.181825         0.680521        -0.924740
 H        -4.222310        -0.179039        -3.692510
 H        -4.836099         1.339917        -3.200425
