19
Iteration:  4066
 C         1.423890        -0.314426        -0.179861
 C        -0.001780        -0.136702        -0.096372
 C        -1.162724         0.276518        -0.063158
 C        -2.504177         0.872759        -0.210835
 O        -2.922695         1.796415         0.892965
 C        -3.417230        -0.207110        -0.678886
 C        -4.708340         0.145151        -1.397294
 C        -3.942795        -0.294202        -2.664047
 O        -2.890331        -0.934829        -1.858961
 H         1.916306        -0.101074        -1.076205
 H         1.775935         0.149676         0.701159
 H         1.636026        -1.383006         0.077115
 H        -2.514945         1.537336        -1.031440
 H        -3.205169         1.265043         1.716918
 H        -3.671487        -0.970316         0.073579
 H        -5.618439        -0.370932        -1.043433
 H        -4.823342         1.237441        -1.478887
 H        -4.381363        -1.062236        -3.303893
 H        -3.435709         0.578051        -3.155982
