19
Iteration:   260
 C         1.412815        -0.048264        -0.092766
 C        -0.019545         0.163962        -0.028544
 C        -1.184647         0.056088         0.330088
 C        -2.578035         0.106411         0.121402
 O        -3.249256        -0.928365         0.934217
 C        -3.121546        -0.090629        -1.247192
 C        -4.597000         0.079506        -1.489083
 C        -4.090851         1.056364        -2.667228
 O        -2.705016         1.059356        -2.061021
 H         1.884109         0.694767         0.381166
 H         1.700515        -0.981362         0.433926
 H         1.863188        -0.215384        -1.131287
 H        -2.940730         1.006546         0.604987
 H        -2.715156        -1.266058         1.635772
 H        -2.773249        -1.015454        -1.719512
 H        -5.142857        -0.864061        -1.777767
 H        -4.907313         0.695708        -0.557641
 H        -4.009021         0.682464        -3.737482
 H        -4.640498         2.044794        -2.688010
