19
Iteration:  3426
 C         1.239814        -0.476676        -0.379996
 C        -0.085876         0.187154         0.023995
 C        -1.199911         0.694380        -0.114500
 C        -2.655005         1.062687         0.077173
 O        -2.956831         0.947804         1.463403
 C        -3.363669        -0.021730        -0.846547
 C        -4.595516         0.219859        -1.691192
 C        -3.823723        -0.490942        -2.858930
 O        -2.684695        -0.589756        -1.935532
 H         2.054561         0.191164        -0.191350
 H         1.169431        -1.476667         0.110336
 H         1.222321        -0.587430        -1.381663
 H        -2.975770         2.039686        -0.220048
 H        -2.627051         0.059028         1.695103
 H        -3.551404        -0.835564        -0.256891
 H        -5.445570        -0.413076        -1.434843
 H        -4.938202         1.206110        -1.969581
 H        -4.362928        -1.463279        -3.121968
 H        -3.555428         0.229806        -3.636879
