19
Iteration:  2217charge 0 multiplicity 1
 C         1.441852        -0.128908        -0.236913
 C         0.001596         0.082780        -0.076306
 C        -1.183167         0.249606         0.061945
 C        -2.618533         0.552995         0.161318
 O        -3.061841         0.085426         1.490405
 C        -3.483640        -0.196566        -0.893702
 C        -4.687419         0.430303        -1.667447
 C        -3.813913         0.350924        -2.935656
 O        -2.685346        -0.043098        -2.168615
 H         1.768799        -0.836386         0.568889
 H         1.586321        -0.852023        -1.017461
 H         1.976265         0.786446        -0.416691
 H        -2.716685         1.690992         0.072048
 H        -3.876553         0.602257         1.734533
 H        -3.440075        -1.252350        -0.565628
 H        -5.476108        -0.344097        -1.490742
 H        -5.027388         1.415174        -1.260355
 H        -4.181684        -0.478766        -3.576962
 H        -3.621875         1.247213        -3.605998
