19
Iteration:  4251
 C         1.265810        -0.561482         0.349549
 C         0.123799         0.243904        -0.129381
 C        -1.003821         0.542251        -0.421832
 C        -2.374629         1.033316        -0.289945
 O        -2.799274         1.463412         1.006160
 C        -3.292712        -0.178477        -0.790617
 C        -4.699916         0.169218        -1.334067
 C        -4.442424        -0.744511        -2.537570
 O        -2.925920        -0.641121        -2.212562
 H         1.446671        -0.373453         1.431216
 H         1.267490        -1.619041         0.023532
 H         2.308951        -0.179919        -0.013246
 H        -2.508689         1.892341        -1.020680
 H        -1.942490         1.780867         1.407758
 H        -3.248075        -1.061012        -0.181773
 H        -5.638915        -0.004938        -0.773086
 H        -4.637380         1.259368        -1.410388
 H        -4.731063        -1.730669        -2.239504
 H        -4.713330        -0.392981        -3.556468
