19
Iteration:  2039charge 0 multiplicity 1
 C         1.533072        -0.075645         0.084185
 C         0.083774        -0.261255         0.004839
 C        -1.114400         0.042526         0.048016
 C        -2.516510         0.532688         0.045477
 O        -3.296293         0.422090         1.268036
 C        -3.170164        -0.211553        -1.125349
 C        -4.689208        -0.029708        -1.411133
 C        -4.174525         0.404849        -2.779986
 O        -2.757933         0.402657        -2.406202
 H         1.838078         0.263465        -0.992608
 H         1.952111         0.539355         0.968050
 H         2.040034        -1.013731         0.253678
 H        -2.542914         1.566021        -0.159222
 H        -2.752899        -0.213900         1.835364
 H        -2.995356        -1.260750        -0.956497
 H        -5.317593        -0.906103        -1.136146
 H        -5.079748         0.798522        -0.787963
 H        -4.353157        -0.380634        -3.416386
 H        -4.442190         1.358565        -3.261324
