19
Iteration:  4240
 C         1.317582        -0.495927         0.354494
 C         0.116791         0.097523        -0.190661
 C        -1.025274         0.541772        -0.362332
 C        -2.427825         1.040310        -0.362233
 O        -2.728425         1.427698         1.045392
 C        -3.358409        -0.131457        -0.821291
 C        -4.778955         0.180203        -1.321507
 C        -4.359885        -0.726686        -2.510546
 O        -2.890063        -0.637771        -2.163859
 H         1.370306        -0.341063         1.463000
 H         1.198144        -1.605996         0.311168
 H         2.144220        -0.110105        -0.349659
 H        -2.675600         1.952706        -0.981753
 H        -2.156938         2.099913         1.358381
 H        -3.140480        -0.920085        -0.132909
 H        -5.597783        -0.046008        -0.615858
 H        -4.900297         1.099455        -1.898850
 H        -4.709182        -1.744491        -2.628067
 H        -4.525756        -0.318123        -3.536411
