19
Iteration:   412
 C         1.364672         0.201245        -0.223150
 C        -0.060706         0.055204         0.051730
 C        -1.267949         0.099767         0.168684
 C        -2.728105         0.128771         0.225484
 O        -3.291440        -0.896887         1.218501
 C        -3.160640        -0.097740        -1.155437
 C        -4.566880         0.204397        -1.623964
 C        -3.885161         1.061917        -2.647225
 O        -2.548238         0.679998        -2.174529
 H         2.009049        -0.640924        -0.388851
 H         1.363438         0.855569        -1.130925
 H         1.891619         0.687203         0.706234
 H        -3.098407         1.139975         0.516139
 H        -2.634066        -1.521239         0.991158
 H        -2.925177        -1.122439        -1.460864
 H        -5.236899        -0.627679        -1.880705
 H        -5.179436         0.751490        -0.851381
 H        -4.021574         0.774222        -3.698400
 H        -4.167630         2.074012        -2.513341
