19
Iteration:  4782
 C         1.193028        -0.715419         0.098460
 C         0.075515         0.153433        -0.376910
 C        -1.015434         0.699741        -0.271127
 C        -2.424601         1.081198        -0.371983
 O        -2.960957         1.670602         0.802522
 C        -3.328791        -0.098316        -0.642020
 C        -4.700552         0.185970        -1.349967
 C        -4.095573        -0.721927        -2.492158
 O        -2.852276        -0.887983        -1.780779
 H         0.882261        -1.635083        -0.198917
 H         2.132166        -0.370246        -0.295371
 H         1.419456        -0.583406         1.136476
 H        -2.387029         1.858687        -1.141511
 H        -2.276947         1.761071         1.487762
 H        -3.314649        -0.688690         0.227788
 H        -5.512178        -0.200654        -0.712524
 H        -4.903118         1.228854        -1.484822
 H        -4.630289        -1.713981        -2.428782
 H        -3.928139        -0.415038        -3.543208
