19
Iteration:  3246
 C         1.592225        -0.243394         0.387539
 C         0.176768        -0.035337        -0.047747
 C        -0.965749         0.324317        -0.356153
 C        -2.452743         0.784912        -0.187848
 O        -2.914793         0.995849         1.109107
 C        -3.325609        -0.280580        -0.884153
 C        -4.832516        -0.011537        -1.234198
 C        -4.303600         0.031638        -2.720911
 O        -2.967919        -0.341991        -2.372890
 H         2.053875        -1.161362         0.126624
 H         2.191956         0.456948        -0.049611
 H         1.469046        -0.160236         1.470188
 H        -2.474075         1.760258        -0.691643
 H        -3.860421         1.261595         0.987448
 H        -3.264354        -1.190643        -0.365966
 H        -5.526297        -0.802859        -0.914563
 H        -5.151338         0.966151        -0.767847
 H        -4.758276        -0.790610        -3.428104
 H        -4.302404         1.120822        -3.103774
