19
Iteration:   562
 C         1.540597         0.139157         0.469029
 C         0.128199        -0.060143         0.239495
 C        -0.995394        -0.085848        -0.222979
 C        -2.477766         0.145791        -0.079384
 O        -3.013424        -0.602111         1.062978
 C        -3.282223        -0.232554        -1.271468
 C        -4.793039         0.101806        -1.521511
 C        -4.223892         1.155465        -2.604182
 O        -2.948955         0.703616        -2.353494
 H         1.722060         1.104313        -0.112200
 H         1.902932         0.148565         1.409261
 H         2.045562        -0.671777         0.004250
 H        -2.635745         1.194284         0.159621
 H        -2.613803        -0.296332         1.837436
 H        -3.131730        -1.310377        -1.491545
 H        -5.299855        -0.778690        -1.899125
 H        -5.353121         0.620720        -0.795908
 H        -4.590904         0.870078        -3.619289
 H        -4.494933         2.272960        -2.430652
