19
Iteration:    71charge 0 multiplicity 1
 C         1.538654        -0.069798         0.413691
 C         0.112195        -0.048211         0.147536
 C        -1.075403         0.039231        -0.109413
 C        -2.530759         0.076276        -0.092333
 O        -2.821674        -0.928913         0.813989
 C        -3.223035        -0.187223        -1.444090
 C        -4.765126         0.120702        -1.472875
 C        -4.300812         1.401838        -2.276894
 O        -2.977814         0.917518        -2.279495
 H         1.931945        -1.065971         0.291598
 H         2.118605         0.637518        -0.213752
 H         1.618108         0.358988         1.554155
 H        -2.902340         1.109515         0.223820
 H        -3.453697        -0.574994         1.390978
 H        -2.873076        -1.146451        -1.871264
 H        -5.266674        -0.675360        -2.043714
 H        -5.258612         0.330823        -0.491853
 H        -4.826909         1.694502        -3.244254
 H        -4.445100         2.261790        -1.622505
