19
Iteration:   247
 C         1.482670        -0.055342         0.013455
 C         0.054416         0.092587        -0.031192
 C        -1.143120         0.087947         0.224088
 C        -2.626649         0.080069         0.208653
 O        -3.162877        -0.966180         0.965432
 C        -3.117530        -0.143383        -1.319754
 C        -4.648647         0.112740        -1.603392
 C        -4.104342         1.085769        -2.621587
 O        -2.813501         1.076076        -2.056454
 H         1.993060         0.832105         0.198950
 H         1.713564        -0.830111         0.700381
 H         1.778756        -0.329598        -1.042483
 H        -2.982388         1.071984         0.382307
 H        -2.896263        -0.695600         1.901816
 H        -2.644817        -1.045390        -1.740747
 H        -5.442461        -0.632866        -1.810251
 H        -5.163365         0.757517        -0.733856
 H        -4.136883         0.620436        -3.671292
 H        -4.450266         2.119618        -2.636522
