19
Iteration:  2334
 C         1.472974        -0.192489        -0.089723
 C         0.020652        -0.017640        -0.004882
 C        -1.169243         0.195837         0.209278
 C        -2.550724         0.559064         0.025021
 O        -3.111761         0.499503         1.307680
 C        -3.198845        -0.335011        -1.051029
 C        -4.687891         0.030333        -1.456969
 C        -4.098962         0.481162        -2.788737
 O        -2.784012        -0.018369        -2.382708
 H         1.825966        -0.643924        -1.048428
 H         2.070338         0.879897        -0.179714
 H         1.899135        -0.635187         0.894877
 H        -2.446965         1.579178        -0.187669
 H        -3.745929         1.037022         1.716175
 H        -2.937410        -1.377388        -0.741750
 H        -5.380154        -0.803138        -1.445830
 H        -5.052405         0.840663        -0.838712
 H        -4.482452        -0.010303        -3.672304
 H        -3.963760         1.532813        -2.876785
