19
Iteration:  2645charge 0 multiplicity 1
 C         1.422453        -0.366589         0.212622
 C         0.143340         0.212803         0.178180
 C        -0.995264         0.456862        -0.029174
 C        -2.374050         0.670955        -0.141540
 O        -3.025601         0.510408         1.124842
 C        -3.211003        -0.329149        -1.107296
 C        -4.713392         0.070427        -1.247003
 C        -4.320680         0.305933        -2.741624
 O        -2.957140        -0.181957        -2.476485
 H         1.593967        -1.350487        -0.353821
 H         2.281611         0.384260        -0.090658
 H         1.522014        -0.747739         1.189252
 H        -2.714657         1.722160        -0.409369
 H        -2.771939         1.340198         1.468609
 H        -3.216720        -1.383496        -0.831813
 H        -5.442721        -0.686238        -0.979604
 H        -4.900293         0.963575        -0.660783
 H        -4.808184        -0.287468        -3.513154
 H        -4.323830         1.293803        -3.158821
