19
Iteration:  3827
 C         1.603516        -0.400120         0.352452
 C         0.247455         0.033586         0.027013
 C        -0.940612         0.372448         0.115681
 C        -2.244468         0.773138        -0.358844
 O        -3.015038         1.531184         0.626543
 C        -3.187736        -0.297825        -0.958210
 C        -4.697807        -0.081486        -1.012403
 C        -4.607451        -0.464930        -2.484433
 O        -3.112613        -0.237646        -2.433848
 H         1.775120         0.055514         1.343762
 H         1.624844        -1.427210         0.636420
 H         2.540898        -0.083140        -0.241148
 H        -2.154774         1.338818        -1.269378
 H        -3.979202         1.262216         0.765434
 H        -2.982554        -1.363782        -0.578175
 H        -5.377377        -0.587351        -0.305838
 H        -4.908048         0.993262        -0.957737
 H        -4.702178        -1.508411        -2.915350
 H        -4.956628         0.195493        -3.223640
