19
Iteration:   249charge 0 multiplicity 1
 C         1.462660        -0.049541         0.005179
 C         0.044220         0.103731        -0.041021
 C        -1.137857         0.081027         0.245289
 C        -2.617187         0.080072         0.210983
 O        -3.170856        -0.957696         0.958942
 C        -3.124733        -0.132235        -1.325327
 C        -4.642439         0.095431        -1.590629
 C        -4.088761         1.077768        -2.626685
 O        -2.801038         1.080353        -2.055888
 H         1.989609         0.784686         0.223972
 H         1.733958        -0.876208         0.684552
 H         1.752499        -0.312027        -1.068632
 H        -2.986590         1.096798         0.385119
 H        -2.874309        -0.771524         1.827098
 H        -2.701301        -1.065120        -1.716575
 H        -5.480554        -0.612208        -1.753462
 H        -5.110608         0.710086        -0.751274
 H        -4.146011         0.622839        -3.658380
 H        -4.468279         2.137484        -2.619669
