19
Iteration:  1114
 C         1.463977        -0.264643        -0.124675
 C         0.132038         0.179811         0.229867
 C        -1.067244         0.263013         0.280488
 C        -2.568448         0.402032         0.189173
 O        -3.407030        -0.205941         1.279953
 C        -3.057078        -0.187411        -1.275686
 C        -4.628975         0.023343        -1.455442
 C        -4.147140         0.582340        -2.816969
 O        -2.750651         0.620581        -2.450124
 H         1.607330        -1.268258         0.031085
 H         1.556868        -0.005193        -1.229898
 H         2.237035         0.367702         0.413172
 H        -2.659414         1.509542         0.192978
 H        -2.845303        -0.899592         1.621660
 H        -2.635790        -1.189862        -1.263223
 H        -5.295062        -0.810596        -1.473514
 H        -5.040691         0.711152        -0.740560
 H        -4.462311         0.132678        -3.727195
 H        -4.560519         1.604066        -2.884531
