19
Iteration:   437
 C         1.338095         0.206567        -0.140931
 C        -0.012230         0.068686         0.227075
 C        -1.220086         0.195866         0.311544
 C        -2.638218         0.066927         0.231284
 O        -3.133607        -0.875710         1.239045
 C        -3.182459        -0.252659        -1.270784
 C        -4.616242         0.308635        -1.600159
 C        -3.965458         1.138324        -2.714192
 O        -2.645975         0.612575        -2.341777
 H         1.649778        -0.597100        -0.710178
 H         1.404359         1.076759        -0.850840
 H         2.037942         0.183867         0.677055
 H        -3.043599         1.004421         0.414339
 H        -3.218623        -1.606852         0.660112
 H        -2.949193        -1.269406        -1.612717
 H        -5.460494        -0.322371        -1.984060
 H        -5.051540         0.655947        -0.576683
 H        -4.337730         0.799244        -3.698492
 H        -4.081269         2.240975        -2.652574
