19
Iteration:  2728
 C         1.404500        -0.284322         0.068923
 C         0.013084         0.041221        -0.111896
 C        -1.158764         0.312678        -0.137284
 C        -2.532920         0.599367        -0.060938
 O        -2.948004         0.800027         1.329084
 C        -3.321472        -0.381048        -0.900828
 C        -4.723873         0.091285        -1.398916
 C        -4.002553         0.372640        -2.750629
 O        -2.785568        -0.251739        -2.302020
 H         1.786013         0.463200        -0.605536
 H         1.792481        -0.295772         1.055937
 H         1.721644        -1.333932        -0.336819
 H        -2.834811         1.666934        -0.446083
 H        -3.865685         0.391158         1.351761
 H        -3.160718        -1.422497        -0.466725
 H        -5.494697        -0.694543        -1.406127
 H        -5.188800         0.971265        -0.859923
 H        -4.418208        -0.192089        -3.625475
 H        -3.815255         1.415745        -3.058632
