19
Iteration:  4182
 C         1.382716        -0.414228         0.064431
 C         0.048241        -0.008780        -0.062542
 C        -1.101851         0.405145        -0.260689
 C        -2.460240         0.975015        -0.258882
 O        -2.877299         1.480167         0.983945
 C        -3.388291        -0.158357        -0.725094
 C        -4.711401         0.237893        -1.378320
 C        -4.152475        -0.505351        -2.695420
 O        -2.899256        -0.803725        -1.928774
 H         2.001567         0.522188         0.350502
 H         1.564703        -1.296123         0.741209
 H         1.831788        -0.643364        -0.889505
 H        -2.398109         1.724426        -1.058574
 H        -2.361703         2.337182         1.112818
 H        -3.538798        -0.778503         0.127636
 H        -5.571807        -0.253355        -0.914856
 H        -4.926150         1.294896        -1.547762
 H        -4.749562        -1.395078        -2.864447
 H        -3.917181         0.050276        -3.603517
