19
Iteration:  3430
 C         1.229077        -0.492465        -0.363322
 C        -0.081962         0.210199         0.020495
 C        -1.186328         0.722045        -0.121050
 C        -2.663631         1.069985         0.083549
 O        -2.951258         0.940323         1.479003
 C        -3.344296        -0.001894        -0.884965
 C        -4.573878         0.184684        -1.703995
 C        -3.829511        -0.469265        -2.850625
 O        -2.712813        -0.614775        -1.933296
 H         2.169416         0.031909        -0.087040
 H         1.309739        -1.508449         0.063851
 H         1.184355        -0.486554        -1.575230
 H        -3.056085         2.121051        -0.164976
 H        -2.735575        -0.001239         1.763940
 H        -3.553580        -0.856702        -0.078719
 H        -5.498864        -0.346231        -1.512102
 H        -4.948116         1.170780        -1.965296
 H        -4.367430        -1.383708        -3.089302
 H        -3.553515         0.146194        -3.689563
