19
Iteration:  3119charge 0 multiplicity 1
 C         1.574241        -0.235872         0.435675
 C         0.129615         0.105027         0.267572
 C        -0.958554         0.423915        -0.184168
 C        -2.406792         0.706206        -0.352613
 O        -3.049049         0.886888         1.034734
 C        -3.156363        -0.410824        -1.093125
 C        -4.647367        -0.017776        -1.103113
 C        -4.494181         0.130890        -2.642420
 O        -3.070334        -0.321069        -2.572032
 H         2.081927         0.136449         1.420095
 H         1.940508        -1.320203         0.155659
 H         2.060192         0.255802        -0.449817
 H        -2.515566         1.615533        -0.928707
 H        -2.306891         1.357295         1.533355
 H        -2.875994        -1.520241        -0.901010
 H        -5.306470        -0.807424        -0.724773
 H        -4.955122         0.941828        -0.656373
 H        -5.080705        -0.504437        -3.244541
 H        -4.716527         1.135435        -3.023734
