19
Iteration:  1687
 C         1.316367        -0.231385        -0.080314
 C        -0.102314         0.084872        -0.091400
 C        -1.228356         0.494917         0.065927
 C        -2.735087         0.495808         0.295767
 O        -2.956011        -0.282166         1.479296
 C        -3.289496        -0.120947        -1.007059
 C        -4.660447         0.212665        -1.687001
 C        -3.941840         0.503607        -2.960934
 O        -2.589412         0.370567        -2.242842
 H         1.918347         0.479465        -0.716512
 H         1.806852        -0.084701         1.011967
 H         1.336738        -1.216148        -0.443124
 H        -3.183313         1.424707         0.455245
 H        -2.697439        -1.150702         1.272188
 H        -3.028525        -1.221837        -1.092908
 H        -5.386566        -0.631703        -1.802525
 H        -5.265785         0.995868        -1.215048
 H        -4.154325        -0.143839        -3.848825
 H        -4.007253         1.623422        -3.274993
