19
Iteration:  3918charge 0 multiplicity 1
 C         1.417327        -0.515564         0.232939
 C         0.187892         0.195672         0.058394
 C        -0.995885         0.480306        -0.142708
 C        -2.417004         0.948280        -0.344170
 O        -2.972482         1.415854         0.910858
 C        -3.218369        -0.159938        -0.859390
 C        -4.736557         0.074136        -1.271902
 C        -4.385517        -0.628677        -2.545295
 O        -2.970530        -0.505964        -2.282195
 H         1.269755        -1.456178         0.828659
 H         1.780154        -0.700598        -0.800112
 H         2.220730        -0.014781         0.717309
 H        -2.330679         1.756298        -1.030588
 H        -2.286230         2.087063         1.210953
 H        -2.987330        -1.081798        -0.207856
 H        -5.276676        -0.342952        -0.421621
 H        -5.033620         1.135057        -1.266159
 H        -4.822791        -1.658623        -2.569073
 H        -4.758875        -0.232588        -3.533202
