19
Iteration:  3584
 C         1.458266        -0.098070        -0.152920
 C         0.063936         0.032812        -0.043720
 C        -1.120131         0.252015         0.167038
 C        -2.431708         0.714046        -0.122733
 O        -3.117928         1.184050         1.037886
 C        -3.426185        -0.327364        -0.803432
 C        -4.637835         0.316598        -1.425475
 C        -4.086217        -0.286641        -2.750714
 O        -2.830950        -0.603594        -2.085231
 H         1.722629        -1.093454        -0.302828
 H         1.813887         0.428116        -0.992803
 H         2.139074         0.263280         0.700145
 H        -2.473664         1.423975        -0.968453
 H        -2.499719         1.801663         1.401421
 H        -3.638566        -1.260825        -0.251443
 H        -5.463984        -0.165735        -0.893066
 H        -4.496792         1.406616        -1.311648
 H        -4.833013        -1.135786        -3.077300
 H        -4.023805         0.559658        -3.422485
