19
Iteration:   154
 C         1.588816        -0.056344         0.447581
 C         0.207112         0.013448         0.071308
 C        -1.006756         0.096033        -0.076679
 C        -2.493812         0.082592        -0.065745
 O        -3.169191        -0.888923         0.867885
 C        -3.150079        -0.162255        -1.424887
 C        -4.611222         0.134253        -1.301472
 C        -4.378735         1.312654        -2.363123
 O        -2.951614         0.927887        -2.375861
 H         2.346512        -0.027794        -0.485018
 H         1.890378         0.707539         1.211282
 H         1.792065        -1.035694         0.789896
 H        -2.856043         1.056257         0.279945
 H        -3.744867        -1.483357         0.345703
 H        -2.757615        -1.119857        -1.836684
 H        -5.318475        -0.725325        -1.556384
 H        -4.831742         0.338539        -0.298486
 H        -4.870837         1.055215        -3.268766
 H        -4.668500         2.322042        -1.980288
