19
Iteration:  4966charge 0 multiplicity 1
 C         1.422698        -0.383396         0.396252
 C         0.091996         0.172162         0.103234
 C        -0.901129         0.553900        -0.427508
 C        -2.267713         0.972125        -0.625353
 O        -2.719032         1.486569         0.629918
 C        -3.244584        -0.153600        -0.799651
 C        -4.696454         0.297546        -1.151089
 C        -4.539820        -0.607465        -2.420103
 O        -3.239130        -0.998490        -1.972128
 H         2.322071         0.247364         0.353715
 H         1.370976        -0.862512         1.363455
 H         1.687118        -1.311883        -0.152889
 H        -2.195918         1.738074        -1.404162
 H        -2.305642         2.298350         0.830764
 H        -2.939336        -0.916437         0.034986
 H        -5.562729        -0.074389        -0.591713
 H        -4.908352         1.297337        -1.438081
 H        -5.128241        -1.501887        -2.484888
 H        -4.481191        -0.173894        -3.424564
