19
Iteration:  2789charge 0 multiplicity 1
 C         1.503763        -0.250717        -0.283949
 C         0.076507         0.045759         0.023536
 C        -1.099398         0.261769         0.235781
 C        -2.500627         0.735340         0.013686
 O        -3.246668         0.670904         1.193729
 C        -3.308726        -0.230870        -0.911685
 C        -4.688687         0.244565        -1.326572
 C        -3.980322         0.261913        -2.853947
 O        -2.788099        -0.460109        -2.236951
 H         2.164046         0.328945         0.367845
 H         1.915616        -1.233370         0.099125
 H         1.675803        -0.051052        -1.295310
 H        -2.384952         1.800263        -0.229579
 H        -4.103616         1.080364         0.970787
 H        -3.236534        -1.124334        -0.296951
 H        -5.531429        -0.475050        -1.268482
 H        -4.954895         1.276423        -1.036649
 H        -4.433932        -0.380283        -3.616342
 H        -3.674034         1.339980        -3.221584
