19
Iteration:  1756
 C         1.555350        -0.157788         0.098660
 C         0.133009         0.102568         0.103201
 C        -1.112849         0.116798         0.222517
 C        -2.498888         0.364915         0.075489
 O        -3.271570        -0.093016         1.178152
 C        -3.162106        -0.176627        -1.205417
 C        -4.672258         0.087895        -1.451574
 C        -4.243017         0.597247        -2.810298
 O        -2.801811         0.503283        -2.423249
 H         2.280128         0.595935         0.513532
 H         1.800398        -1.067609         0.665478
 H         1.807439        -0.439061        -0.990689
 H        -2.514542         1.408943         0.056028
 H        -2.709562         0.084727         1.984707
 H        -3.014402        -1.280430        -1.193036
 H        -5.371093        -0.732188        -1.329998
 H        -5.099286         0.975444        -0.930926
 H        -4.524031        -0.134575        -3.607253
 H        -4.567075         1.566265        -3.107901
