19
Iteration:  2662charge 0 multiplicity 1
 C         1.483631        -0.384294         0.245093
 C         0.119182         0.150062         0.042011
 C        -1.059638         0.488106        -0.051855
 C        -2.521268         0.720006        -0.183138
 O        -2.921327         0.536353         1.281905
 C        -3.234009        -0.337761        -1.020714
 C        -4.713081         0.061999        -1.321503
 C        -4.252363         0.323300        -2.746907
 O        -2.950731        -0.231149        -2.510198
 H         1.637635        -0.903683        -0.670666
 H         2.229307         0.331215         0.361062
 H         1.673647        -1.012571         1.206770
 H        -2.704421         1.687347        -0.695025
 H        -3.304851         1.291471         1.701120
 H        -2.911044        -1.326315        -0.586205
 H        -5.461655        -0.743436        -1.215121
 H        -5.035095         0.966454        -0.762744
 H        -4.870788        -0.117288        -3.606544
 H        -4.253818         1.442313        -3.110230
