19
Iteration:   689
 C         1.443470        -0.392931         0.264181
 C         0.099992         0.168677         0.146864
 C        -1.114551         0.325457         0.114944
 C        -2.572059         0.384006         0.049059
 O        -3.011024        -0.365476         1.231377
 C        -3.030137        -0.162173        -1.353552
 C        -4.568530        -0.247908        -1.635123
 C        -4.415749         0.880999        -2.664699
 O        -2.941451         0.882181        -2.402149
 H         1.588065        -0.631198         1.339203
 H         1.422916        -1.416574        -0.292897
 H         2.179202         0.296134        -0.040929
 H        -2.876154         1.439042         0.109503
 H        -2.160025        -0.799733         1.362590
 H        -2.353125        -0.959802        -1.475274
 H        -4.995524        -1.184414        -2.063836
 H        -5.104316        -0.055779        -0.711325
 H        -4.576987         0.706060        -3.712019
 H        -5.086742         1.642542        -2.313317
