19
Iteration:  2016charge 0 multiplicity 1
 C         1.526114        -0.198518         0.109777
 C         0.082147        -0.129801         0.073866
 C        -1.062686         0.150669         0.187340
 C        -2.445142         0.508459        -0.027525
 O        -3.177719         0.331658         1.170027
 C        -3.188317        -0.296520        -1.147392
 C        -4.704526        -0.047901        -1.450762
 C        -4.248633         0.452932        -2.801251
 O        -2.877911         0.417299        -2.383264
 H         2.077872        -0.143671        -0.900170
 H         1.756557         0.718562         0.823935
 H         1.924854        -0.925288         0.810734
 H        -2.467835         1.514823        -0.369695
 H        -2.622003         0.624837         1.858407
 H        -2.950950        -1.347456        -1.030379
 H        -5.327007        -0.942768        -1.318067
 H        -5.088507         0.655057        -0.686460
 H        -4.552258        -0.159512        -3.564284
 H        -4.464484         1.513391        -3.014943
