19
Iteration:  4130charge 0 multiplicity 1
 C         1.482424        -0.437049        -0.199613
 C         0.193838         0.181485         0.037609
 C        -0.986347         0.395696         0.055603
 C        -2.449329         0.836830        -0.245888
 O        -3.191988         1.634486         0.744645
 C        -3.386346        -0.317122        -0.655168
 C        -4.601127         0.340578        -1.400891
 C        -4.003930        -0.278109        -2.613265
 O        -3.068858        -1.030901        -1.888164
 H         2.326270         0.202615        -0.537753
 H         1.838780        -0.920541         0.750866
 H         1.363981        -1.284720        -0.889396
 H        -2.130005         1.495888        -1.059905
 H        -3.155381         1.031455         1.572985
 H        -3.384979        -0.936206         0.336807
 H        -5.610375        -0.085899        -1.292219
 H        -4.735635         1.429575        -1.409861
 H        -4.804313        -0.919356        -2.958910
 H        -3.622990         0.430587        -3.419307
