19
Iteration:  3881charge 0 multiplicity 1
 C         1.511618        -0.367260         0.237550
 C         0.058024        -0.186962         0.258357
 C        -0.961951         0.368251        -0.101954
 C        -2.313862         0.944062        -0.310184
 O        -2.891452         1.667939         0.784449
 C        -3.228087        -0.179452        -0.915053
 C        -4.750287        -0.066497        -1.188009
 C        -4.513286        -0.670130        -2.562728
 O        -3.023244        -0.304882        -2.359923
 H         2.057683        -0.887741         1.035879
 H         1.703637        -0.992532        -0.643388
 H         1.786415         0.759066        -0.039142
 H        -2.359729         1.763076        -1.058534
 H        -2.693778         1.063826         1.616645
 H        -2.941373        -1.127152        -0.424731
 H        -5.367488        -0.763455        -0.594860
 H        -5.088569         0.972057        -1.162924
 H        -4.461183        -1.753791        -2.606082
 H        -4.718196        -0.155627        -3.411196
