19
Iteration:  3779charge 0 multiplicity 1
 C         1.449089        -0.352345         0.513210
 C         0.129695         0.116692         0.265923
 C        -0.946873         0.507017        -0.125691
 C        -2.202619         0.932902        -0.505302
 O        -2.724202         1.299605         0.753969
 C        -3.150477        -0.266404        -1.063562
 C        -4.736437        -0.127119        -1.004024
 C        -4.620213        -0.304850        -2.480068
 O        -3.214285        -0.489622        -2.509050
 H         2.304806         0.340870         0.647408
 H         1.531251        -1.194482         1.289540
 H         1.710235        -0.701135        -0.518232
 H        -2.258810         1.774449        -1.220165
 H        -3.655276         1.213402         0.817079
 H        -2.652087        -1.116332        -0.663831
 H        -5.063685        -0.829484        -0.239336
 H        -5.100112         0.851012        -0.637022
 H        -5.061148        -1.129125        -2.957831
 H        -4.889980         0.536821        -3.129749
