19
Iteration:  1946
 C         1.454254        -0.433821         0.405091
 C         0.163800         0.107510         0.132683
 C        -1.018415         0.558975         0.057984
 C        -2.485881         0.616952        -0.202376
 O        -3.060831         0.028073         0.991437
 C        -3.158884        -0.259125        -1.219794
 C        -4.587513        -0.102852        -1.215091
 C        -4.381795         0.663347        -2.590642
 O        -2.968273         0.229526        -2.606820
 H         1.602373        -1.449085         0.122348
 H         2.260907         0.196899         0.035135
 H         1.611666        -0.269640         1.548049
 H        -2.872345         1.657501        -0.331329
 H        -2.551281         0.480097         1.635176
 H        -2.679314        -1.270428        -1.121271
 H        -5.296836        -0.925860        -1.264171
 H        -5.079830         0.630202        -0.599806
 H        -4.803451         0.074420        -3.437922
 H        -4.643797         1.703103        -2.643794
