19
Iteration:   219charge 0 multiplicity 1
 C         1.544240        -0.045641         0.163537
 C         0.107063        -0.065708         0.147461
 C        -1.073691         0.114542        -0.073532
 C        -2.584309         0.054684         0.150472
 O        -2.990071        -0.995525         1.060997
 C        -3.291523        -0.057057        -1.284119
 C        -4.785378         0.072792        -1.630624
 C        -4.195139         1.170968        -2.631786
 O        -2.822762         1.083819        -2.138313
 H         1.901257         1.068897        -0.252810
 H         2.009002        -0.420963         1.157783
 H         1.820362        -0.741179        -0.664161
 H        -2.819486         1.105402         0.603264
 H        -3.569921        -0.494832         1.775670
 H        -2.916306        -1.012101        -1.789764
 H        -5.143299        -0.892404        -2.089584
 H        -5.287534         0.585242        -0.902499
 H        -4.233726         0.949911        -3.674318
 H        -4.495739         2.251397        -2.488907
