19
Iteration:  2329charge 0 multiplicity 1
 C         1.514003        -0.155498        -0.147800
 C         0.043184        -0.016721         0.033693
 C        -1.162031         0.189809         0.247123
 C        -2.541597         0.536916         0.046113
 O        -3.153036         0.478244         1.315141
 C        -3.212676        -0.337447        -1.070037
 C        -4.688812         0.071295        -1.466395
 C        -4.076624         0.484287        -2.744693
 O        -2.782954        -0.048728        -2.403630
 H         1.927434        -0.766024        -0.958781
 H         2.049526         0.685747        -0.274732
 H         1.779399        -0.547338         0.814402
 H        -2.475050         1.668076        -0.256859
 H        -3.824050         1.195611         1.558123
 H        -2.968354        -1.356716        -0.755676
 H        -5.388904        -0.789545        -1.338485
 H        -5.172706         0.931109        -0.933507
 H        -4.371328        -0.023011        -3.707296
 H        -4.173730         1.608797        -2.969566
