19
Iteration:  1205charge 0 multiplicity 1
 C         1.354180        -0.471888         0.298533
 C         0.036157         0.141329        -0.171651
 C        -1.122410         0.391715         0.045606
 C        -2.556140         0.503723         0.111501
 O        -2.991415        -0.197835         1.260963
 C        -3.129703        -0.044658        -1.196375
 C        -4.570094        -0.132913        -1.476143
 C        -4.213935         0.404189        -2.849607
 O        -2.908950         0.909545        -2.296433
 H         1.691665        -1.261092        -0.442033
 H         2.151938         0.225967         0.667708
 H         1.081810        -0.968522         1.207546
 H        -2.983788         1.586756         0.115817
 H        -2.391557        -1.026243         1.176670
 H        -2.687646        -0.944255        -1.633160
 H        -4.917362        -1.221655        -1.431716
 H        -5.291042         0.362617        -0.770954
 H        -4.160009        -0.168066        -3.735359
 H        -4.755043         1.317121        -3.196225
