19
Iteration:  2077
 C         1.527433        -0.158658        -0.103059
 C         0.084884         0.015568         0.081146
 C        -1.116288         0.180633         0.306860
 C        -2.515653         0.505939         0.075404
 O        -3.200047         0.279451         1.318635
 C        -3.287904        -0.206678        -1.092457
 C        -4.701740         0.187315        -1.477028
 C        -4.101620         0.272614        -2.877176
 O        -2.739901         0.274627        -2.372415
 H         1.976245         0.643979        -0.604237
 H         2.009368        -0.162027         0.830493
 H         1.694796        -1.135740        -0.649246
 H        -2.505535         1.617804        -0.126376
 H        -3.746445        -0.479697         1.340806
 H        -3.073908        -1.316811        -1.091158
 H        -5.453481        -0.604155        -1.321058
 H        -4.833503         1.133404        -0.933661
 H        -4.532859        -0.568263        -3.587318
 H        -4.252420         1.213888        -3.418470
