19
Iteration:  1179charge 0 multiplicity 1
 C         1.329278        -0.491990         0.150332
 C        -0.040871         0.048430         0.010704
 C        -1.139124         0.614759         0.051831
 C        -2.548726         0.586506         0.128857
 O        -3.078052        -0.321435         1.239180
 C        -3.037888        -0.056112        -1.170402
 C        -4.550094        -0.108725        -1.475171
 C        -4.230083         0.438131        -2.814245
 O        -2.845901         0.814114        -2.332506
 H         1.485671        -1.320266        -0.400706
 H         2.088281         0.307919        -0.071577
 H         1.577966        -0.611565         1.221329
 H        -3.027789         1.534295         0.183097
 H        -2.304995        -1.001971         1.228941
 H        -2.494753        -0.953542        -1.554147
 H        -5.071288        -1.039153        -1.432519
 H        -5.072918         0.495843        -0.777797
 H        -4.213856        -0.264369        -3.690866
 H        -4.667473         1.378276        -3.259505
