19
Iteration:  2979charge 0 multiplicity 1
 C         1.452465        -0.450254        -0.057946
 C         0.152019         0.206870         0.043330
 C        -1.001040         0.643406         0.177380
 C        -2.495882         0.820199        -0.065037
 O        -3.132133         0.616747         1.285826
 C        -3.255485        -0.175274        -0.960396
 C        -4.703922         0.133296        -1.437866
 C        -4.190371        -0.210302        -2.799689
 O        -2.859744        -0.200911        -2.379721
 H         1.584710        -0.427047        -1.072538
 H         2.245346         0.082850         0.345609
 H         1.425137        -1.443578         0.403468
 H        -2.641475         1.936381        -0.358524
 H        -3.008825         1.522231         1.709184
 H        -3.007469        -1.120975        -0.507495
 H        -5.448399        -0.569292        -0.957991
 H        -5.030245         1.227340        -1.493791
 H        -4.457580        -1.259432        -3.150108
 H        -4.372984         0.548149        -3.675483
