19
Iteration:  1715charge 0 multiplicity 1
 C         1.380475        -0.202504         0.044653
 C        -0.036072        -0.008154        -0.059744
 C        -1.187624         0.390150         0.022013
 C        -2.648460         0.464105         0.153614
 O        -3.052690        -0.183303         1.335938
 C        -3.279753        -0.195287        -1.041709
 C        -4.704843         0.153129        -1.562211
 C        -3.990872         0.504894        -2.889708
 O        -2.652600         0.490855        -2.222592
 H         1.728970         0.791761        -0.251972
 H         1.704588        -0.483992         1.018426
 H         1.731300        -0.942711        -0.764955
 H        -3.079432         1.570228         0.049424
 H        -2.450637        -0.857286         1.547702
 H        -2.984910        -1.202321        -1.219369
 H        -5.430944        -0.658867        -1.642146
 H        -5.257211         0.948321        -1.038961
 H        -4.081886        -0.134056        -3.769070
 H        -4.077192         1.535303        -3.201497
