19
Iteration:    44charge 0 multiplicity 1
 C         1.486997        -0.054134         0.353094
 C         0.099129         0.056020        -0.052066
 C        -1.093543         0.097143        -0.253260
 C        -2.525926         0.035473         0.054464
 O        -2.990293        -0.996977         0.970804
 C        -3.153208        -0.198927        -1.360395
 C        -4.667981         0.080727        -1.488046
 C        -4.299369         1.402464        -2.314702
 O        -2.852144         1.004602        -2.238100
 H         1.529847        -1.092922         0.781355
 H         2.353312         0.028513        -0.283049
 H         1.512782         0.558811         1.115212
 H        -2.815403         0.995901         0.409265
 H        -3.850238        -1.089609         0.634964
 H        -2.749511        -1.129441        -1.776686
 H        -5.307426        -0.728940        -1.884930
 H        -5.203093         0.259331        -0.526504
 H        -4.717347         1.512195        -3.288671
 H        -4.505979         2.290403        -1.654619
