19
Iteration:    99
 C         1.670455        -0.075026         0.472901
 C         0.191647        -0.072275         0.288864
 C        -0.994259         0.100392        -0.055383
 C        -2.512414         0.030506        -0.083329
 O        -2.990120        -0.971766         0.856264
 C        -3.224377        -0.130487        -1.540282
 C        -4.770245         0.184043        -1.397132
 C        -4.377855         1.385670        -2.277936
 O        -3.053194         0.908990        -2.501580
 H         2.162779        -0.824851        -0.237697
 H         1.925557         0.947055         0.166237
 H         1.976857        -0.168550         1.410547
 H        -2.912660         0.970266         0.242013
 H        -2.521439        -0.704725         1.632505
 H        -2.941701        -1.097140        -1.977431
 H        -5.171633        -0.560993        -2.104424
 H        -5.176835         0.285505        -0.416727
 H        -5.094372         1.480991        -3.058339
 H        -4.441755         2.345845        -1.713955
