19
Iteration:   834
 C         1.506459        -0.002045        -0.038320
 C         0.055522         0.047660        -0.015607
 C        -1.140948         0.013074         0.247547
 C        -2.519943         0.354232         0.173267
 O        -3.380397        -0.392559         1.124847
 C        -3.111113        -0.150670        -1.155232
 C        -4.584017         0.246163        -1.394751
 C        -4.157420         0.620457        -2.817617
 O        -2.734044         0.642667        -2.318461
 H         1.873296        -0.492034        -1.036576
 H         1.824473         1.021291         0.146347
 H         1.828177        -0.583633         0.830757
 H        -2.679023         1.421936         0.374403
 H        -2.663723        -0.928910         1.633053
 H        -3.029731        -1.250011        -1.083227
 H        -5.302500        -0.575750        -1.414815
 H        -5.062667         1.102836        -0.862221
 H        -4.126816        -0.102955        -3.687037
 H        -4.509198         1.596864        -3.261267
