19
Iteration:  2990
 C         1.448036        -0.377245        -0.042385
 C         0.127708         0.141123         0.126514
 C        -1.021209         0.565190         0.066109
 C        -2.420651         0.842980        -0.029431
 O        -3.190946         0.687469         1.274603
 C        -3.217303        -0.171087        -1.022862
 C        -4.723403         0.093967        -1.364418
 C        -4.270061        -0.216124        -2.801016
 O        -2.767220        -0.185490        -2.400192
 H         1.711841        -0.320411        -1.044047
 H         2.191962         0.054002         0.531814
 H         1.440315        -1.459418         0.044182
 H        -2.623078         1.884989        -0.484412
 H        -2.725565         1.276975         1.857051
 H        -3.149738        -1.178818        -0.640229
 H        -5.603096        -0.524959        -1.030212
 H        -5.004234         1.169487        -1.093636
 H        -4.613176        -1.249430        -3.120571
 H        -4.459020         0.538992        -3.664596
