19
Iteration:  2019charge 0 multiplicity 1
 C         1.522166        -0.187336         0.109784
 C         0.092634        -0.150638         0.059036
 C        -1.095999         0.148266         0.177962
 C        -2.438340         0.503340        -0.018660
 O        -3.190628         0.342460         1.170712
 C        -3.198195        -0.283757        -1.146132
 C        -4.678116        -0.019948        -1.418771
 C        -4.231810         0.434937        -2.828337
 O        -2.877312         0.410894        -2.359209
 H         2.074246        -0.045985        -0.878017
 H         1.662290         0.690540         0.754395
 H         1.973732        -0.940704         0.732582
 H        -2.426437         1.484031        -0.435586
 H        -2.581163         0.530600         1.968008
 H        -2.847659        -1.326988        -1.091166
 H        -5.330100        -0.955855        -1.391468
 H        -5.182578         0.641247        -0.673608
 H        -4.534363        -0.214991        -3.695270
 H        -4.485806         1.510232        -2.964201
