19
Iteration:  2163
 C         1.365758        -0.247168        -0.184223
 C        -0.075479         0.103157        -0.120791
 C        -1.187294         0.486620         0.070538
 C        -2.671343         0.557949         0.245605
 O        -3.118196        -0.025496         1.501918
 C        -3.327208        -0.186842        -1.000514
 C        -4.619474         0.453356        -1.623845
 C        -3.930462         0.243867        -2.946025
 O        -2.625580         0.001469        -2.263143
 H         1.949200         0.328156         0.686378
 H         1.631217        -1.319061        -0.074841
 H         1.801320         0.237447        -1.164282
 H        -2.980127         1.587806         0.270281
 H        -2.616755         0.491967         2.228108
 H        -3.266889        -1.286672        -0.823997
 H        -5.627353        -0.010265        -1.316031
 H        -4.644838         1.533829        -1.314412
 H        -4.315030        -0.510650        -3.528487
 H        -3.775108         1.147373        -3.531118
