19
Iteration:  4805
 C         1.284178        -0.756360         0.059175
 C         0.152286         0.129823        -0.284454
 C        -0.956487         0.662832        -0.271505
 C        -2.378782         1.107751        -0.437421
 O        -3.103252         1.653328         0.769312
 C        -3.294676        -0.110191        -0.636991
 C        -4.696047         0.160419        -1.299467
 C        -4.189606        -0.688607        -2.457841
 O        -2.835226        -0.872908        -1.767712
 H         1.058234        -1.551385        -0.553153
 H         2.240099        -0.240054         0.078031
 H         1.256739        -0.956652         1.120206
 H        -2.368342         1.865516        -1.255635
 H        -2.791292         2.505251         1.079955
 H        -3.195063        -0.695657         0.239673
 H        -5.537876        -0.190602        -0.649716
 H        -4.963633         1.189471        -1.623849
 H        -4.721045        -1.670282        -2.645030
 H        -4.097275        -0.037635        -3.343804
