19
Iteration:  4540
 C         1.477056        -0.232800         0.386758
 C         0.061105        -0.055242        -0.007830
 C        -1.062536         0.285038        -0.452768
 C        -2.389746         0.922005        -0.527900
 O        -2.666460         1.609571         0.622981
 C        -3.367539        -0.210466        -0.668215
 C        -4.808000         0.164845        -1.185940
 C        -4.363548        -0.469515        -2.507253
 O        -3.040090        -0.801052        -1.977387
 H         1.980055         0.704321         0.345183
 H         1.495995        -0.308622         1.503098
 H         2.057935        -1.050093        -0.168601
 H        -2.464880         1.698127        -1.314584
 H        -2.277785         1.060847         1.305586
 H        -3.266351        -0.839937         0.252685
 H        -5.637067        -0.474900        -0.842363
 H        -4.896013         1.279819        -1.154666
 H        -4.936678        -1.328047        -2.837254
 H        -4.398654         0.243503        -3.344981
