19
Iteration:   757charge 0 multiplicity 1
 C         1.482234        -0.287643         0.012266
 C         0.046533        -0.017706         0.098421
 C        -1.119496         0.263011         0.280035
 C        -2.540477         0.457380         0.121501
 O        -3.173486        -0.432859         1.121139
 C        -3.081358        -0.018219        -1.250067
 C        -4.543130        -0.174192        -1.537485
 C        -4.271576         0.652529        -2.756303
 O        -2.874612         0.940611        -2.307583
 H         1.678434        -1.404852         0.312707
 H         1.919409        -0.133944        -1.000406
 H         1.835691         0.357241         0.775524
 H        -2.772023         1.543257         0.321014
 H        -3.114773         0.042342         1.940431
 H        -2.575663        -0.931962        -1.385396
 H        -4.878905        -1.195598        -1.707798
 H        -5.239008         0.285979        -0.821236
 H        -4.258862        -0.045039        -3.555366
 H        -4.591772         1.625781        -2.985461
