19
Iteration:   165
 C         1.599509        -0.100215         0.405807
 C         0.178097        -0.008314         0.070908
 C        -1.023387         0.122694        -0.079095
 C        -2.474426         0.071029        -0.001721
 O        -3.119114        -0.912112         0.966227
 C        -3.129820        -0.170198        -1.470683
 C        -4.666924         0.158883        -1.383502
 C        -4.413780         1.214007        -2.363807
 O        -2.923234         0.986168        -2.352512
 H         2.242403         0.426804        -0.483125
 H         1.715213         0.639792         1.266836
 H         1.940113        -1.011561         0.775994
 H        -2.776944         1.058889         0.363001
 H        -3.852230        -1.351037         0.354913
 H        -2.876233        -1.139852        -1.967768
 H        -5.422961        -0.592625        -1.807851
 H        -4.950361         0.620551        -0.497132
 H        -4.809357         1.176600        -3.346531
 H        -4.448755         2.281782        -2.089021
