19
Iteration:  2008charge 0 multiplicity 1
 C         1.553943        -0.196258         0.177099
 C         0.151147        -0.096756         0.103998
 C        -1.073526         0.170758         0.177366
 C        -2.481016         0.520739        -0.048329
 O        -3.169512         0.302679         1.182335
 C        -3.176506        -0.300944        -1.156071
 C        -4.744209        -0.099447        -1.439683
 C        -4.295651         0.520741        -2.732226
 O        -2.857202         0.400034        -2.455658
 H         2.021825        -0.432113        -0.846846
 H         2.097505         0.688587         0.518798
 H         1.773838        -1.098550         0.733713
 H        -2.570537         1.577719        -0.260248
 H        -2.689199         0.848597         1.793608
 H        -2.971859        -1.378212        -1.118245
 H        -5.412704        -1.007992        -1.345089
 H        -5.017817         0.778275        -0.816526
 H        -4.522845        -0.198510        -3.594153
 H        -4.585758         1.516725        -3.147805
