19
Iteration:  2746charge 0 multiplicity 1
 C         1.498977        -0.246493        -0.119619
 C         0.042827         0.013603         0.049778
 C        -1.132926         0.293044        -0.070450
 C        -2.593515         0.681396        -0.025411
 O        -3.037634         0.826154         1.401155
 C        -3.313824        -0.397370        -0.963064
 C        -4.696486         0.129083        -1.449381
 C        -4.029627         0.352140        -2.809920
 O        -2.789079        -0.337916        -2.291160
 H         2.247668         0.558083        -0.223616
 H         1.721077        -0.686075         0.945485
 H         1.658401        -1.128754        -0.834426
 H        -2.700600         1.550721        -0.646319
 H        -3.967431         0.471566         1.587581
 H        -3.367451        -1.437147        -0.659953
 H        -5.597724        -0.553635        -1.382177
 H        -4.882109         1.016657        -0.754263
 H        -4.474812        -0.149789        -3.625253
 H        -3.797482         1.404231        -2.971197
