19
Iteration:  3825
 C         1.603701        -0.400776         0.366095
 C         0.263782         0.037890         0.041089
 C        -0.926713         0.377101         0.100573
 C        -2.246856         0.777791        -0.361004
 O        -3.029228         1.529268         0.630256
 C        -3.186458        -0.312429        -0.964002
 C        -4.696892        -0.078727        -0.992363
 C        -4.592322        -0.464877        -2.485136
 O        -3.125699        -0.240507        -2.444650
 H         1.832125         0.098686         1.309059
 H         1.618369        -1.480498         0.613085
 H         2.533128        -0.121873        -0.265968
 H        -2.180489         1.328262        -1.288198
 H        -3.950843         1.277749         0.752404
 H        -3.031470        -1.339918        -0.591608
 H        -5.430269        -0.589297        -0.369964
 H        -4.910390         1.001514        -0.977737
 H        -4.751990        -1.445724        -2.913445
 H        -4.955404         0.208498        -3.186679
