19
Iteration:  4556
 C         1.415990        -0.232974         0.345060
 C         0.079054        -0.037752        -0.086903
 C        -1.094960         0.197139        -0.392982
 C        -2.369621         0.804821        -0.487946
 O        -2.821664         1.711217         0.683336
 C        -3.376743        -0.227220        -0.711748
 C        -4.703609         0.246181        -1.174290
 C        -4.308276        -0.498249        -2.469656
 O        -2.971824        -0.793025        -1.993822
 H         2.072565         0.712601         0.240417
 H         1.471946        -0.801170         1.257945
 H         1.872433        -0.755383        -0.465169
 H        -2.429130         1.471728        -1.402633
 H        -2.186923         1.542614         1.453634
 H        -3.400966        -1.039681        -0.008188
 H        -5.485231        -0.012524        -0.467373
 H        -4.898169         1.321244        -1.269731
 H        -4.869448        -1.446927        -2.692846
 H        -4.243066         0.061899        -3.416567
