19
Iteration:  3033
 C         1.507417        -0.212499         0.082334
 C         0.071049        -0.063354        -0.006213
 C        -1.074238         0.356775         0.066070
 C        -2.452599         0.718990        -0.105159
 O        -3.070927         0.975411         1.084509
 C        -3.207184        -0.304820        -0.978176
 C        -4.722618         0.006304        -1.239647
 C        -4.300318        -0.112662        -2.713829
 O        -2.819777        -0.058414        -2.399404
 H         2.091418         0.592160        -0.275158
 H         1.558527        -0.252526         1.153745
 H         1.902745        -1.142568        -0.297836
 H        -2.413312         1.734597        -0.579830
 H        -3.386613         0.090472         1.384544
 H        -2.874692        -1.289981        -0.684017
 H        -5.406202        -0.746028        -0.780978
 H        -5.161704         0.963761        -0.905240
 H        -4.414365        -1.141162        -3.141139
 H        -4.589648         0.634675        -3.573761
