19
Iteration:  2129
 C         1.384649        -0.250280        -0.151920
 C         0.016573         0.198751         0.017023
 C        -1.167704         0.401344         0.158213
 C        -2.581810         0.617204         0.176844
 O        -3.258485         0.026902         1.299785
 C        -3.203547        -0.134776        -1.012438
 C        -4.642490         0.438698        -1.513460
 C        -4.013396         0.244502        -2.855560
 O        -2.657126        -0.019306        -2.308172
 H         2.103129         0.706006         0.017262
 H         1.726025        -1.231560         0.309734
 H         1.511688        -0.474599        -1.283687
 H        -2.835000         1.657632         0.124918
 H        -2.707178        -0.749614         1.607126
 H        -3.173214        -1.237588        -0.812624
 H        -5.441667        -0.247800        -1.085159
 H        -4.743053         1.480380        -1.124685
 H        -4.432038        -0.551992        -3.350213
 H        -3.958851         1.101813        -3.551549
