19
Iteration:   648
 C         1.537950        -0.247757         0.321712
 C         0.099736        -0.004010         0.344605
 C        -1.042980         0.342800         0.128181
 C        -2.481625         0.451645        -0.055100
 O        -3.080427        -0.401589         0.924640
 C        -3.040392        -0.150871        -1.327042
 C        -4.618165        -0.183690        -1.439041
 C        -4.470591         0.965781        -2.524584
 O        -2.964255         0.718556        -2.495775
 H         2.067592         0.164994         1.251014
 H         1.693563        -1.316963         0.419567
 H         2.013720         0.077984        -0.540423
 H        -3.008147         1.427987         0.156145
 H        -2.817120        -1.383828         0.731645
 H        -2.504163        -1.095123        -1.613685
 H        -5.009173        -1.163106        -1.761624
 H        -5.209631         0.171943        -0.599556
 H        -4.805149         0.748696        -3.512340
 H        -4.606643         1.979231        -2.254418
