19
Iteration:  3237
 C         1.506374        -0.200844         0.431156
 C         0.115511        -0.052460        -0.012168
 C        -0.982121         0.352877        -0.363015
 C        -2.406875         0.777682        -0.269590
 O        -2.801891         0.989135         1.149382
 C        -3.330775        -0.321291        -0.942167
 C        -4.754569        -0.043735        -1.235810
 C        -4.358704         0.093135        -2.721308
 O        -3.002250        -0.337248        -2.338583
 H         1.770086        -1.285538         0.325335
 H         2.198604         0.467676        -0.091210
 H         1.751539        -0.016316         1.413384
 H        -2.534955         1.733301        -0.897974
 H        -3.783590         1.104828         1.102225
 H        -3.319420        -1.279075        -0.352308
 H        -5.460959        -0.856427        -0.964205
 H        -5.197852         0.908280        -0.817191
 H        -4.727841        -0.732910        -3.472000
 H        -4.374231         1.026401        -3.339815
