19
Iteration:  3099charge 0 multiplicity 1
 C         1.550716        -0.185660         0.315810
 C         0.143214         0.089224         0.288953
 C        -0.991596         0.342708        -0.012248
 C        -2.334716         0.704650        -0.316755
 O        -2.954569         0.959576         0.953393
 C        -3.221192        -0.352476        -1.065560
 C        -4.757954        -0.097082        -1.162734
 C        -4.495594         0.070743        -2.703379
 O        -3.002717        -0.207575        -2.465498
 H         2.057790         0.396614         1.081289
 H         1.657286        -1.263412         0.531784
 H         2.026853        -0.065248        -0.694101
 H        -2.447630         1.509177        -1.048938
 H        -2.445072         0.391111         1.540925
 H        -2.985731        -1.403638        -0.724819
 H        -5.494565        -0.884376        -0.889074
 H        -5.171159         0.784104        -0.668925
 H        -4.972386        -0.691517        -3.344661
 H        -4.712805         1.104540        -3.197198
