19
Iteration:   462charge 0 multiplicity 1
 C         1.515636         0.177894        -0.025381
 C         0.045578         0.254145         0.268921
 C        -1.176934         0.137890         0.280767
 C        -2.667020         0.062979         0.168017
 O        -3.160104        -0.835164         1.055335
 C        -3.269346        -0.238124        -1.219269
 C        -4.691667         0.328547        -1.489931
 C        -3.986389         1.093556        -2.698436
 O        -2.686051         0.528434        -2.394788
 H         1.523343        -0.510725        -0.969751
 H         1.996106         1.064570        -0.310370
 H         2.052202        -0.306893         0.721609
 H        -3.080693         1.051705         0.445193
 H        -3.152223        -1.758648         0.623542
 H        -3.154870        -1.311095        -1.484817
 H        -5.449610        -0.412527        -1.749102
 H        -5.109859         0.823571        -0.633222
 H        -4.418003         1.011003        -3.712882
 H        -3.991903         2.199111        -2.376697
