19
Iteration:  4058charge 0 multiplicity 1
 C         1.398240        -0.362892        -0.097593
 C        -0.005209        -0.026972        -0.168482
 C        -1.166877         0.221537        -0.109646
 C        -2.442449         0.858990        -0.133201
 O        -2.918547         1.773693         0.878912
 C        -3.449528        -0.255195        -0.641316
 C        -4.745308         0.168152        -1.492631
 C        -3.931950        -0.334624        -2.621275
 O        -2.867601        -0.858587        -1.853809
 H         1.750247        -0.194236        -1.161845
 H         1.915748         0.336614         0.628309
 H         1.606449        -1.473847         0.123408
 H        -2.473849         1.548125        -1.065522
 H        -2.817919         1.376216         1.819996
 H        -3.526834        -0.916337         0.185734
 H        -5.598063        -0.451424        -1.164830
 H        -5.109474         1.209246        -1.488330
 H        -4.494969        -1.031658        -3.311939
 H        -3.643583         0.497520        -3.258283
