19
Iteration:  2742
 C         1.472379        -0.255780        -0.080941
 C         0.037875         0.003383         0.017184
 C        -1.146746         0.297189        -0.107755
 C        -2.582563         0.682841        -0.042485
 O        -3.026546         0.823337         1.414389
 C        -3.310016        -0.432598        -0.953039
 C        -4.669167         0.131286        -1.450122
 C        -4.027536         0.340203        -2.772083
 O        -2.811061        -0.307364        -2.286791
 H         2.278936         0.482862        -0.256420
 H         1.738235        -0.477057         0.958253
 H         1.560104        -1.060593        -0.688173
 H        -2.604397         1.565640        -0.696227
 H        -3.879721         0.465066         1.550891
 H        -3.307394        -1.481203        -0.638720
 H        -5.486408        -0.540535        -1.504019
 H        -4.893075         1.018396        -0.947736
 H        -4.491848        -0.191335        -3.702292
 H        -3.887720         1.525971        -2.905103
