19
Iteration:  4203
 C         1.415931        -0.380640         0.186863
 C        -0.030844        -0.176224        -0.057772
 C        -1.023746         0.419663        -0.443042
 C        -2.414467         1.119093        -0.383172
 O        -2.816997         1.390284         1.043246
 C        -3.352398        -0.030006        -0.741355
 C        -4.845418         0.157830        -1.394634
 C        -4.179788        -0.611801        -2.572700
 O        -2.884400        -0.682818        -1.962486
 H         1.935533         0.422349         0.833448
 H         1.604566        -1.417102         0.571304
 H         2.003133        -0.434920        -0.685238
 H        -2.464163         1.909529        -1.104983
 H        -2.672613         2.313817         1.221440
 H        -3.552112        -0.620846         0.109288
 H        -5.673161        -0.280433        -0.832087
 H        -5.190108         1.133434        -1.778222
 H        -4.622487        -1.602796        -2.803747
 H        -4.061682         0.045316        -3.419827
