19
Iteration:  3724
 C         1.324291        -0.308802         0.638148
 C         0.223238         0.132228        -0.223000
 C        -0.934595         0.471460        -0.459005
 C        -2.344567         0.837478        -0.504906
 O        -2.803429         1.168580         0.855800
 C        -3.263532        -0.382905        -0.843214
 C        -4.753189        -0.100179        -1.023030
 C        -4.478717        -0.188541        -2.496324
 O        -3.041085        -0.381357        -2.327767
 H         2.205675         0.309572         0.309381
 H         1.000152        -0.015680         1.717098
 H         1.505989        -1.418882         0.807592
 H        -2.599164         1.651548        -1.235798
 H        -2.557283         2.071132         1.081916
 H        -2.790215        -1.305675        -0.466339
 H        -5.220275        -0.997793        -0.622691
 H        -4.908371         0.855614        -0.507918
 H        -4.876444        -1.110562        -2.877837
 H        -4.608249         0.606046        -3.212684
