19
Iteration:  1976
 C         1.524567        -0.340388         0.277403
 C         0.230061         0.152898         0.258664
 C        -0.979540         0.306769        -0.048043
 C        -2.414467         0.533798        -0.056811
 O        -3.203503         0.148227         1.145215
 C        -3.142731        -0.247152        -1.165870
 C        -4.618922        -0.103139        -1.347757
 C        -4.406454         0.614779        -2.682949
 O        -2.957834         0.274578        -2.584880
 H         1.675041        -1.157571        -0.463986
 H         2.280870         0.361761         0.120627
 H         1.613672        -0.937914         1.171602
 H        -2.598479         1.709011        -0.163305
 H        -3.165496         0.990811         1.734288
 H        -2.730001        -1.308711        -1.135157
 H        -5.328974        -0.985187        -1.363745
 H        -5.131742         0.654231        -0.712113
 H        -4.748762        -0.042819        -3.605842
 H        -4.685064         1.702674        -2.841742
