19
Iteration:  4488charge 0 multiplicity 1
 C         1.456736        -0.290483         0.582687
 C         0.226110         0.252360        -0.079121
 C        -0.899378         0.461312        -0.431547
 C        -2.267386         0.905067        -0.556217
 O        -2.672862         1.617054         0.750636
 C        -3.323426        -0.345356        -0.869035
 C        -4.784436         0.139076        -1.068769
 C        -4.481168        -0.383827        -2.588182
 O        -3.298992        -1.021323        -2.096763
 H         2.410103        -0.323834        -0.081906
 H         1.581157         0.191329         1.569651
 H         1.305431        -1.353104         0.638319
 H        -2.335093         1.719721        -1.308296
 H        -2.071796         1.080612         1.218788
 H        -3.243664        -0.962776         0.004998
 H        -5.573493        -0.506064        -0.575183
 H        -5.198296         1.160865        -0.876238
 H        -5.227778        -1.038231        -3.087348
 H        -4.309940         0.410791        -3.329624
