19
Iteration:  3438charge 0 multiplicity 1
 C         1.177194        -0.490422        -0.352969
 C        -0.045667         0.247361        -0.023407
 C        -1.160520         0.810659        -0.108148
 C        -2.615170         1.065056         0.066547
 O        -2.957105         0.918035         1.503209
 C        -3.371944        -0.018153        -0.815086
 C        -4.628713         0.185818        -1.759690
 C        -3.834591        -0.423723        -2.832300
 O        -2.701548        -0.694912        -1.975910
 H         2.068796        -0.185017         0.111586
 H         1.373222        -1.585870        -0.161337
 H         1.257590        -0.423216        -1.376381
 H        -2.887407         2.103426        -0.088889
 H        -2.977205        -0.062704         1.801491
 H        -3.530286        -0.607840        -0.019461
 H        -5.511554        -0.299494        -1.398686
 H        -4.811153         1.237609        -1.836603
 H        -4.178745        -1.474745        -3.213732
 H        -3.594760        -0.016079        -3.798977
