19
Iteration:  3486charge 0 multiplicity 1
 C         1.177566        -0.406854        -0.297503
 C        -0.021925         0.319170        -0.315506
 C        -1.184604         0.615760        -0.185700
 C        -2.589457         0.964928         0.043587
 O        -3.205564         0.943898         1.386101
 C        -3.371620        -0.215349        -0.726636
 C        -4.494672         0.393175        -1.541859
 C        -3.826651        -0.401432        -2.726155
 O        -2.617593        -0.708488        -1.952049
 H         1.485938        -0.613337         0.732666
 H         1.093792        -1.423117        -0.669554
 H         2.111281        -0.077078        -0.979261
 H        -2.866674         1.921407        -0.510224
 H        -2.526724         0.570148         1.930411
 H        -3.565979        -1.017737        -0.025062
 H        -5.551948         0.040870        -1.417212
 H        -4.405601         1.488212        -1.729186
 H        -4.427555        -1.232646        -3.083437
 H        -3.529283         0.111694        -3.647056
