19
Iteration:  2385charge 0 multiplicity 1
 C         1.455296        -0.354447         0.181355
 C         0.037889         0.058493        -0.054291
 C        -1.089685         0.478674        -0.127204
 C        -2.506706         0.700593        -0.114970
 O        -2.937332         0.460883         1.324313
 C        -3.255412        -0.366172        -0.992431
 C        -4.755201        -0.127811        -1.420670
 C        -4.163751         0.454927        -2.760502
 O        -2.825867         0.081667        -2.340078
 H         2.107212        -0.286920        -0.691508
 H         1.857928         0.042646         1.031927
 H         1.447054        -1.461003         0.391349
 H        -2.764845         1.826725        -0.263448
 H        -3.944019         0.369251         1.297933
 H        -2.984090        -1.391649        -0.695786
 H        -5.270228        -1.129902        -1.395618
 H        -5.277900         0.655292        -0.829259
 H        -4.244963        -0.237817        -3.643940
 H        -4.463328         1.572446        -2.953474
