19
Iteration:  2083
 C         1.518020        -0.188192        -0.151966
 C         0.103912         0.066697         0.117218
 C        -1.105999         0.208918         0.317491
 C        -2.533290         0.507569         0.072777
 O        -3.203678         0.264969         1.329911
 C        -3.262858        -0.232275        -1.071001
 C        -4.710560         0.220772        -1.460384
 C        -4.108609         0.268369        -2.884078
 O        -2.731975         0.244612        -2.379034
 H         2.061006         0.731928        -0.637262
 H         1.950457        -0.384736         0.908083
 H         1.836643        -1.088914        -0.654735
 H        -2.611796         1.591088        -0.051159
 H        -3.754405        -0.572151         1.136859
 H        -3.144072        -1.305191        -1.116266
 H        -5.598670        -0.450964        -1.489995
 H        -5.005082         1.215855        -1.075412
 H        -4.342510        -0.536676        -3.518145
 H        -4.314585         1.191605        -3.450330
