19
Iteration:  4156charge 0 multiplicity 1
 C         1.425580        -0.471364        -0.046517
 C         0.157317         0.222814        -0.131303
 C        -1.053373         0.457962         0.069695
 C        -2.499825         0.830306        -0.232678
 O        -3.007611         1.564265         0.858003
 C        -3.443279        -0.303127        -0.732943
 C        -4.691976         0.297396        -1.370921
 C        -4.083909        -0.393977        -2.700562
 O        -2.959147        -0.927477        -1.910710
 H         2.165489         0.271071        -0.066897
 H         1.543642        -1.137316         0.785571
 H         1.681104        -1.035905        -0.973049
 H        -2.239016         1.415140        -1.066564
 H        -2.132794         1.742201         1.345735
 H        -3.592277        -0.965003         0.145421
 H        -5.711310         0.104325        -1.010394
 H        -4.576072         1.366802        -1.563997
 H        -4.747405        -1.209187        -3.046259
 H        -3.747226         0.344905        -3.424747
