19
Iteration:  1609
 C         1.370877        -0.068298        -0.380519
 C        -0.030179         0.122493         0.080624
 C        -1.246512         0.287468         0.270609
 C        -2.656958         0.449639         0.343779
 O        -3.396239        -0.321106         1.323549
 C        -3.175371        -0.179057        -0.981142
 C        -4.518864         0.329099        -1.534812
 C        -3.864898         0.569344        -2.892565
 O        -2.554153         0.216087        -2.339954
 H         1.347804        -0.306602        -1.491693
 H         1.858945         1.032512        -0.473380
 H         1.933022        -0.852203         0.047339
 H        -2.877069         1.455753         0.351547
 H        -3.141774        -0.046811         2.193604
 H        -3.090130        -1.278249        -1.023027
 H        -5.342788        -0.408815        -1.591629
 H        -4.850072         1.290185        -1.092115
 H        -4.229741        -0.204059        -3.599364
 H        -4.028891         1.615226        -3.382825
