19
Iteration:  4725
 C         1.267237        -0.578831        -0.045349
 C        -0.083989         0.030876         0.052037
 C        -1.077259         0.592777        -0.285284
 C        -2.426409         1.092351        -0.372232
 O        -2.691159         1.735996         0.890521
 C        -3.462828        -0.003025        -0.720203
 C        -4.801433         0.094182        -1.518117
 C        -4.079639        -0.805224        -2.475677
 O        -2.833158        -0.827856        -1.805724
 H         1.544435        -1.481431         0.342076
 H         1.492220        -0.720600        -1.075428
 H         1.852889         0.153211         0.523300
 H        -2.412192         1.875154        -1.119270
 H        -2.515922         1.111367         1.598594
 H        -3.481361        -0.534464         0.186234
 H        -5.575427        -0.150690        -0.825010
 H        -4.880977         1.017549        -2.035912
 H        -4.601213        -1.781000        -2.543864
 H        -4.142912        -0.314689        -3.491806
