19
Iteration:   742
 C         1.472560        -0.336247         0.132531
 C         0.051398        -0.057047        -0.018783
 C        -1.075120         0.419972         0.057719
 C        -2.578542         0.428304         0.167925
 O        -3.217339        -0.404866         1.116410
 C        -3.050402        -0.082563        -1.199092
 C        -4.585855        -0.240495        -1.510626
 C        -4.202520         0.709625        -2.761539
 O        -2.886111         0.954445        -2.228755
 H         1.615477        -1.276717         0.628083
 H         1.909426        -0.403297        -0.938117
 H         2.028278         0.479899         0.633304
 H        -2.942531         1.467497         0.137292
 H        -3.034672        -0.108018         2.000180
 H        -2.288931        -0.913772        -1.555490
 H        -4.815753        -1.283963        -1.779376
 H        -5.261596         0.136499        -0.746334
 H        -4.064170         0.211293        -3.799701
 H        -4.964900         1.570354        -2.667598
