19
Iteration:  2743
 C         1.479983        -0.255318        -0.096361
 C         0.038430         0.004643         0.027074
 C        -1.142139         0.295582        -0.099486
 C        -2.586957         0.687754        -0.039762
 O        -3.031389         0.823326         1.412917
 C        -3.309215        -0.425397        -0.955789
 C        -4.676065         0.131692        -1.451164
 C        -4.029082         0.341354        -2.781659
 O        -2.805803        -0.315533        -2.286569
 H         2.285938         0.497644        -0.239469
 H         1.731173        -0.526372         0.970136
 H         1.574086        -1.040248        -0.696873
 H        -2.619706         1.527414        -0.676845
 H        -3.882323         0.476005         1.565513
 H        -3.330112        -1.459425        -0.658097
 H        -5.511947        -0.539882        -1.475224
 H        -4.878125         1.003764        -0.899713
 H        -4.495781        -0.189246        -3.690607
 H        -3.861732         1.523133        -2.914331
