19
Iteration:  4359charge 0 multiplicity 1
 C         1.515718        -0.357878         0.298006
 C         0.148224         0.044761         0.118000
 C        -1.023992         0.365591        -0.066963
 C        -2.341297         0.801435        -0.400693
 O        -2.851619         1.742393         0.474864
 C        -3.304533        -0.352942        -0.791123
 C        -4.807053        -0.040738        -1.042351
 C        -4.470573        -0.543671        -2.452359
 O        -2.987274        -0.440279        -2.266354
 H         1.349548        -1.487815         0.270239
 H         2.218453        -0.277480        -0.546250
 H         1.934146         0.100159         1.159308
 H        -2.244122         1.132155        -1.439550
 H        -2.191499         1.929360         1.226277
 H        -3.083615        -1.422378        -0.333617
 H        -5.472859        -0.616982        -0.383432
 H        -4.952201         1.053270        -0.986003
 H        -4.874162        -1.608120        -2.557054
 H        -4.948595         0.154607        -3.183310
