19
Iteration:   992
 C         1.461232         0.166636        -0.058727
 C         0.045779         0.177379         0.115882
 C        -1.155801         0.129631        -0.047881
 C        -2.640149         0.332427         0.120847
 O        -3.249094        -0.302089         1.212852
 C        -3.370225        -0.353842        -1.110750
 C        -4.663936         0.347054        -1.488898
 C        -3.806090         0.965706        -2.598726
 O        -2.726522        -0.025280        -2.392759
 H         2.002908         0.715345         0.655145
 H         1.798613        -0.892725         0.117532
 H         1.763648         0.296399        -1.199727
 H        -3.013533         1.389781         0.016806
 H        -2.810592        -1.033083         1.755450
 H        -3.425021        -1.386692        -0.851345
 H        -5.490268        -0.298601        -1.801840
 H        -5.043442         1.041545        -0.742548
 H        -4.314154         1.062772        -3.601224
 H        -3.401654         1.901336        -2.121596
