19
Iteration:  4741
 C         1.203602        -0.540719        -0.018857
 C        -0.126291         0.031240         0.048469
 C        -1.045696         0.640392        -0.385785
 C        -2.431771         1.148608        -0.343888
 O        -2.665347         1.802504         0.941227
 C        -3.359407        -0.130011        -0.707292
 C        -4.706410         0.174406        -1.447888
 C        -4.142798        -0.850533        -2.581991
 O        -2.850052        -0.868588        -1.808819
 H         1.127663        -1.707850         0.297466
 H         1.498012        -0.467829        -1.122338
 H         2.013772        -0.274758         0.681940
 H        -2.777717         1.902630        -1.107571
 H        -2.607381         1.077452         1.653632
 H        -3.497916        -0.854797         0.228293
 H        -5.654559        -0.350744        -1.161470
 H        -5.032420         1.252459        -1.659949
 H        -4.636943        -1.853264        -2.530554
 H        -3.956474        -0.557141        -3.613517
