19
Iteration:  2843
 C         1.414167        -0.211811        -0.281119
 C         0.020914         0.064715        -0.052837
 C        -1.144132         0.337910         0.228121
 C        -2.560229         0.638040        -0.015033
 O        -3.253302         0.687940         1.290372
 C        -3.330395        -0.296513        -0.872127
 C        -4.630194         0.345524        -1.497507
 C        -3.935411         0.045430        -2.786569
 O        -2.699415        -0.316324        -2.182677
 H         1.907058        -0.675204         0.612798
 H         1.349588        -1.032830        -1.063178
 H         1.991916         0.539919        -0.686139
 H        -2.430364         1.751239        -0.440513
 H        -2.468663         0.997750         1.847328
 H        -3.403649        -1.287171        -0.419809
 H        -5.608140        -0.150224        -1.432994
 H        -4.869762         1.378618        -1.393329
 H        -4.499446        -0.766068        -3.341155
 H        -3.835484         0.974508        -3.533270
