19
Iteration:  1009
 C         1.508612         0.149636        -0.102227
 C         0.017911         0.150314         0.109683
 C        -1.187627         0.028252         0.091658
 C        -2.584109         0.210140         0.057664
 O        -3.224879        -0.181320         1.339651
 C        -3.373775        -0.389193        -1.141396
 C        -4.748201         0.300609        -1.565422
 C        -3.806084         1.024537        -2.652873
 O        -2.758410         0.085705        -2.335746
 H         2.045611         0.667845         0.796940
 H         2.014345        -0.809700        -0.190441
 H         1.568953         0.729452        -0.961999
 H        -2.633980         1.327681        -0.052642
 H        -2.631003        -0.988075         1.449149
 H        -3.306419        -1.544337        -1.173093
 H        -5.326340        -0.544090        -2.023200
 H        -5.243354         0.995976        -0.836766
 H        -4.141430         0.665612        -3.641948
 H        -3.632797         2.080952        -2.452440
