19
Iteration:  3471
 C         1.190167        -0.510983        -0.303362
 C        -0.041920         0.377411        -0.303799
 C        -1.160337         0.787806        -0.021027
 C        -2.626047         0.910369        -0.023023
 O        -3.077238         0.915687         1.370393
 C        -3.373883        -0.151455        -0.717349
 C        -4.545699         0.327291        -1.657409
 C        -3.817299        -0.395009        -2.779786
 O        -2.674280        -0.703108        -1.921018
 H         1.714470        -0.297162         0.576704
 H         0.813166        -1.529167        -0.523150
 H         1.861628        -0.178421        -1.004676
 H        -2.867939         1.917760        -0.328052
 H        -2.704293         0.120017         1.819733
 H        -3.617644        -0.921984         0.006160
 H        -5.504471         0.008496        -1.318665
 H        -4.452610         1.388333        -1.611606
 H        -4.246025        -1.459649        -2.917155
 H        -3.557675         0.176573        -3.673325
