19
Iteration:   502charge 0 multiplicity 1
 C         1.520874         0.161741         0.262241
 C         0.093078         0.186974        -0.053183
 C        -1.122365         0.158727         0.031037
 C        -2.636221         0.102117         0.155540
 O        -3.234471        -0.821289         0.986496
 C        -3.261173        -0.214575        -1.270303
 C        -4.676246         0.264594        -1.411239
 C        -4.084189         1.118677        -2.547017
 O        -2.723487         0.507162        -2.400896
 H         2.136222         0.128024        -0.573993
 H         1.843892         1.108995         0.856140
 H         1.739610        -0.833277         0.747507
 H        -2.891564         1.133626         0.336963
 H        -2.520636        -1.316375         1.359396
 H        -3.191878        -1.302340        -1.358433
 H        -5.508472        -0.471391        -1.572911
 H        -4.977369         1.020700        -0.590995
 H        -4.343354         0.792966        -3.535948
 H        -4.058725         2.166885        -2.523069
