19
Iteration:   374charge 0 multiplicity 1
 C         1.389894         0.203564        -0.290490
 C        -0.047162         0.161560        -0.165183
 C        -1.191401         0.011630         0.270337
 C        -2.699453         0.039775         0.268971
 O        -3.401058        -0.919342         1.174655
 C        -3.162679        -0.201943        -1.217058
 C        -4.576775         0.161688        -1.652858
 C        -3.846706         1.000269        -2.718474
 O        -2.565051         0.888128        -1.935743
 H         1.794652        -0.780034         0.212898
 H         1.732535         0.162416        -1.336077
 H         1.782146         1.082821         0.087488
 H        -2.906030         1.136331         0.609611
 H        -3.477485        -0.498584         2.016375
 H        -2.767870        -1.203812        -1.468721
 H        -5.123592        -0.672068        -2.065857
 H        -5.141845         0.675543        -0.910971
 H        -3.803472         0.734670        -3.774187
 H        -4.112770         2.086584        -2.590583
