19
Iteration:  2593charge 0 multiplicity 1
 C         1.575615        -0.275018         0.336091
 C         0.139927        -0.076390         0.029134
 C        -1.020010         0.319164         0.114803
 C        -2.365094         0.675170        -0.151014
 O        -3.097220         0.675360         1.128916
 C        -3.139902        -0.233786        -1.077214
 C        -4.672307         0.104924        -1.202082
 C        -4.446003         0.124890        -2.755833
 O        -2.976121         0.037626        -2.595128
 H         1.806240        -1.309418         0.585647
 H         2.114755        -0.081302        -0.612709
 H         2.096544         0.489423         1.057195
 H        -2.567588         1.719346        -0.531140
 H        -3.147549        -0.266038         1.259146
 H        -3.024566        -1.337552        -0.975060
 H        -5.215772        -0.846436        -0.970929
 H        -5.212443         0.983821        -0.707851
 H        -4.815766        -0.680239        -3.389618
 H        -4.816226         1.028502        -3.258669
