19
Iteration:  4970
 C         1.404290        -0.385946         0.430075
 C         0.130158         0.183954         0.085268
 C        -0.908161         0.556986        -0.455303
 C        -2.244801         0.973332        -0.649746
 O        -2.713173         1.455978         0.646425
 C        -3.261663        -0.169054        -0.803617
 C        -4.720389         0.296663        -1.168128
 C        -4.546484        -0.615854        -2.404691
 O        -3.230059        -0.981308        -1.953075
 H         2.277784         0.260468         0.390176
 H         1.411263        -0.945083         1.383864
 H         1.783692        -1.290486        -0.135436
 H        -2.243195         1.740080        -1.449633
 H        -2.355407         2.398461         0.790182
 H        -2.929718        -0.773557        -0.003925
 H        -5.536233        -0.048809        -0.541534
 H        -4.948333         1.364905        -1.457839
 H        -5.192818        -1.537457        -2.556712
 H        -4.501739        -0.082209        -3.397408
