19
Iteration:  1830
 C         1.511414        -0.107439         0.398496
 C         0.177866        -0.104513         0.186789
 C        -1.046374         0.074788         0.085249
 C        -2.443647         0.449727        -0.107475
 O        -3.105088         0.130862         1.063496
 C        -3.135735        -0.241446        -1.312515
 C        -4.645619        -0.061129        -1.315342
 C        -4.430002         0.651822        -2.679204
 O        -2.949842         0.474062        -2.545069
 H         1.771978        -0.258165         1.472900
 H         2.040883        -0.980751        -0.081875
 H         2.034228         0.670447         0.018055
 H        -2.434445         1.617399        -0.473662
 H        -2.425127        -0.068641         1.658659
 H        -2.813316        -1.306734        -1.429961
 H        -5.260108        -0.961604        -1.368783
 H        -5.210496         0.546286        -0.566977
 H        -4.950242         0.157042        -3.534512
 H        -4.823160         1.727767        -2.542520
