19
Iteration:  2661charge 0 multiplicity 1
 C         1.477051        -0.388253         0.243030
 C         0.118152         0.158185         0.047386
 C        -1.054474         0.487215        -0.045457
 C        -2.516381         0.714440        -0.170837
 O        -2.920261         0.534894         1.265332
 C        -3.236018        -0.346932        -1.022072
 C        -4.712158         0.064926        -1.309217
 C        -4.260871         0.324417        -2.760414
 O        -2.949493        -0.228741        -2.512793
 H         1.613242        -0.904079        -0.667178
 H         2.213648         0.336384         0.342168
 H         1.689768        -0.986709         1.240786
 H        -2.665790         1.706976        -0.716162
 H        -3.286939         1.302733         1.733660
 H        -2.874014        -1.323263        -0.589627
 H        -5.481164        -0.743228        -1.203582
 H        -5.051104         0.997127        -0.752370
 H        -4.847028        -0.121649        -3.604402
 H        -4.263043         1.424549        -3.088148
