19
Iteration:   193
 C         1.550569        -0.038598         0.286502
 C         0.104477        -0.062274         0.131547
 C        -1.101161        -0.064968         0.021921
 C        -2.559850         0.155296         0.043667
 O        -2.834576        -0.909386         0.975398
 C        -3.270470        -0.114809        -1.337339
 C        -4.700406         0.106459        -1.561704
 C        -4.347020         1.280612        -2.572384
 O        -2.913886         1.004584        -2.192755
 H         1.896507         0.707136        -0.334639
 H         1.774697         0.144487         1.332254
 H         2.058062        -1.055607        -0.033234
 H        -2.775177         1.200617         0.391789
 H        -3.863078        -0.945803         1.093408
 H        -2.997687        -1.138059        -1.687098
 H        -5.041987        -0.693821        -2.181128
 H        -5.220898         0.505472        -0.603958
 H        -4.548304         0.986198        -3.653677
 H        -4.501604         2.374922        -2.461435
