19
Iteration:   457charge 0 multiplicity 1
 C         1.483345         0.174603        -0.066893
 C         0.023754         0.233341         0.279199
 C        -1.186961         0.142621         0.345498
 C        -2.670613         0.094637         0.107368
 O        -3.134035        -0.862174         1.090989
 C        -3.255153        -0.251912        -1.272058
 C        -4.680564         0.327319        -1.501199
 C        -3.978870         1.101900        -2.694105
 O        -2.684607         0.551193        -2.383302
 H         1.695836        -0.520997        -0.827871
 H         1.868125         1.179437        -0.494685
 H         2.162124        -0.363585         0.716957
 H        -3.081569         1.036295         0.509792
 H        -3.269873        -1.758427         0.864467
 H        -3.188556        -1.354506        -1.379493
 H        -5.423485        -0.478566        -1.713922
 H        -5.225352         0.979032        -0.702427
 H        -4.367317         1.009609        -3.716401
 H        -3.976050         2.122264        -2.415943
