19
Iteration:  4932
 C         1.550245        -0.454593         0.220439
 C         0.132199         0.030198         0.066935
 C        -0.984296         0.485852        -0.154085
 C        -2.321822         0.889938        -0.482905
 O        -2.869493         1.864742         0.529692
 C        -3.237902        -0.287157        -0.748262
 C        -4.726421         0.218709        -1.155059
 C        -4.463742        -0.597867        -2.444939
 O        -3.129093        -0.917861        -2.028162
 H         2.305074         0.208078        -0.227505
 H         1.629999        -0.339042         1.248151
 H         1.462767        -1.401455        -0.236265
 H        -2.378213         1.468766        -1.415152
 H        -2.458169         1.524972         1.329815
 H        -3.259226        -1.071093         0.101443
 H        -5.648944         0.097339        -0.554092
 H        -4.627516         1.245962        -1.417062
 H        -5.041065        -1.486266        -2.576411
 H        -4.476498        -0.043059        -3.383028
