19
Iteration:  1154charge 0 multiplicity 1
 C         1.367743        -0.442610         0.015542
 C         0.019255         0.118234         0.277331
 C        -1.126626         0.557341         0.201883
 C        -2.541135         0.552624         0.110456
 O        -3.111228        -0.300665         1.160919
 C        -3.092579        -0.057620        -1.165426
 C        -4.639836        -0.119941        -1.470816
 C        -4.197883         0.528686        -2.807338
 O        -2.805956         0.706068        -2.413351
 H         1.240274        -1.470960        -0.475313
 H         1.791807         0.149321        -0.753315
 H         2.168233        -0.388676         0.795952
 H        -2.995143         1.521021         0.211463
 H        -2.419096        -0.996188         1.342597
 H        -2.585496        -0.999317        -1.439360
 H        -5.231730        -1.032819        -1.395574
 H        -5.102750         0.636857        -0.807176
 H        -4.174735        -0.240212        -3.650301
 H        -4.576797         1.472107        -3.190426
