19
Iteration:  2208charge 0 multiplicity 1
 C         1.405360        -0.173223        -0.218337
 C        -0.021362         0.129587        -0.077625
 C        -1.210265         0.216134         0.043068
 C        -2.617235         0.581433         0.140410
 O        -3.015798         0.047641         1.441368
 C        -3.472997        -0.149954        -0.884931
 C        -4.724217         0.394575        -1.653769
 C        -3.787831         0.332519        -2.921612
 O        -2.664068        -0.025845        -2.115466
 H         2.018058        -0.532491         0.759598
 H         1.458148        -0.928587        -1.077915
 H         2.083310         0.738168        -0.559675
 H        -2.840202         1.634215         0.041016
 H        -3.698997         0.691105         1.802426
 H        -3.668505        -1.221720        -0.665522
 H        -5.730557        -0.168150        -1.647816
 H        -4.998804         1.469852        -1.365318
 H        -3.864892        -0.480272        -3.529624
 H        -3.818450         1.222162        -3.547222
