19
Iteration:  4343
 C         1.451425        -0.453828         0.299077
 C         0.112096         0.016429         0.009829
 C        -1.015228         0.449469        -0.028384
 C        -2.298931         0.851880        -0.436254
 O        -2.934919         1.737539         0.557724
 C        -3.186874        -0.299392        -0.884677
 C        -4.668286         0.029589        -0.984592
 C        -4.483906        -0.597699        -2.467527
 O        -3.072193        -0.532135        -2.272608
 H         1.588001        -1.384286         0.794122
 H         2.028619        -0.201040        -0.595355
 H         1.923379         0.329349         0.999167
 H        -2.202633         1.537970        -1.331721
 H        -2.567400         1.372064         1.437313
 H        -2.993555        -1.139232        -0.235739
 H        -5.368724        -0.448055        -0.290905
 H        -4.917004         1.118813        -0.955517
 H        -4.717697        -1.656107        -2.607245
 H        -4.677037         0.010457        -3.355960
