19
Iteration:  3097charge 0 multiplicity 1
 C         1.538784        -0.180163         0.310324
 C         0.152454         0.090026         0.276620
 C        -0.997312         0.337457        -0.006308
 C        -2.326243         0.692207        -0.323701
 O        -2.954673         0.968359         0.963508
 C        -3.219398        -0.336613        -1.065682
 C        -4.765178        -0.096470        -1.161298
 C        -4.506513         0.072476        -2.719227
 O        -2.990598        -0.206715        -2.448340
 H         2.104797         0.458285         1.108024
 H         1.692088        -1.321874         0.542680
 H         1.992045        -0.117165        -0.699761
 H        -2.394496         1.493621        -1.032361
 H        -2.524354         0.344433         1.523006
 H        -3.007462        -1.449328        -0.763145
 H        -5.430783        -0.933912        -0.894321
 H        -5.235428         0.785500        -0.703450
 H        -4.942028        -0.670975        -3.334147
 H        -4.738464         1.054526        -3.195638
