19
Iteration:   316charge 0 multiplicity 1
 C         1.350502         0.096286        -0.373316
 C         0.000919        -0.056296         0.209099
 C        -1.175755         0.068609         0.549996
 C        -2.619177         0.161285         0.269016
 O        -3.250124        -0.878056         1.022996
 C        -3.063913        -0.076491        -1.200217
 C        -4.579017         0.126816        -1.639436
 C        -3.974688         0.996681        -2.673755
 O        -2.691406         0.970109        -2.125770
 H         2.151940         0.279134         0.242843
 H         1.527672        -0.760279        -1.080874
 H         1.226414         1.029658        -0.950943
 H        -3.007092         1.057125         0.784028
 H        -3.885200        -1.443303         0.453187
 H        -2.578565        -1.049894        -1.504337
 H        -5.144710        -0.709295        -2.186661
 H        -5.240503         0.512219        -0.778907
 H        -4.002877         0.487865        -3.681546
 H        -4.332649         2.074824        -2.792595
