19
Iteration:  1932
 C         1.402933        -0.363292         0.490955
 C         0.085962         0.042128         0.103298
 C        -1.014528         0.615229        -0.099560
 C        -2.407987         0.613723        -0.117836
 O        -3.046806         0.036942         1.050084
 C        -3.011025        -0.293740        -1.266291
 C        -4.655163        -0.024616        -1.270205
 C        -4.423731         0.611279        -2.597271
 O        -2.990755         0.240197        -2.601005
 H         1.410145        -1.455065         0.387200
 H         2.136982        -0.023069        -0.160170
 H         1.617708        -0.259235         1.519145
 H        -2.796846         1.729355        -0.305842
 H        -2.387667        -0.143994         1.820980
 H        -2.660559        -1.360151        -1.166973
 H        -5.165571        -1.006482        -1.304192
 H        -4.906362         0.431051        -0.303829
 H        -5.048457         0.292935        -3.523624
 H        -4.408525         1.719159        -2.556790
