19
Iteration:  1678
 C         1.292231        -0.277866        -0.102456
 C        -0.080470         0.205500        -0.066800
 C        -1.247557         0.520747         0.029836
 C        -2.735218         0.460695         0.317245
 O        -3.015366        -0.312689         1.511597
 C        -3.267008        -0.144150        -1.006882
 C        -4.685291         0.253695        -1.673114
 C        -3.869854         0.507991        -2.962655
 O        -2.575846         0.357650        -2.296669
 H         1.779508         0.336834        -0.974819
 H         1.936034        -0.012507         0.784593
 H         1.487905        -1.357499        -0.422247
 H        -3.150335         1.327759         0.681616
 H        -2.703817        -1.178115         1.356465
 H        -3.192450        -1.198331        -0.757450
 H        -5.245488        -0.682807        -1.663328
 H        -5.225583         1.118665        -1.260992
 H        -4.091612        -0.133837        -3.840128
 H        -4.100646         1.506336        -3.218826
