19
Iteration:  1675
 C         1.299143        -0.287923        -0.138097
 C        -0.103165         0.247117        -0.046322
 C        -1.245988         0.523919         0.026374
 C        -2.712343         0.456091         0.326716
 O        -3.038589        -0.326169         1.514947
 C        -3.277617        -0.132879        -1.026107
 C        -4.675418         0.239829        -1.656879
 C        -3.853163         0.519991        -2.942660
 O        -2.582746         0.343203        -2.305934
 H         1.733837         0.218391        -1.036145
 H         1.951452        -0.041646         0.823056
 H         1.501799        -1.281523        -0.320593
 H        -3.106083         1.426621         0.581962
 H        -2.657996        -1.282284         1.416257
 H        -3.245438        -1.235608        -0.742871
 H        -5.303245        -0.678950        -1.614748
 H        -5.174138         1.143654        -1.284339
 H        -3.973168        -0.191564        -3.797569
 H        -4.048698         1.621610        -3.339781
