19
Iteration:   529
 C         1.433795         0.175424         0.385024
 C         0.080410        -0.014062         0.023804
 C        -1.135444         0.056298         0.008209
 C        -2.601972         0.052179        -0.022685
 O        -3.000583        -0.723413         1.108446
 C        -3.260300        -0.268502        -1.322485
 C        -4.689261         0.234433        -1.439284
 C        -4.150515         1.149967        -2.609816
 O        -2.836996         0.641882        -2.397838
 H         1.990129         0.691797        -0.490821
 H         1.572168         0.775347         1.203675
 H         1.961020        -0.744308         0.459495
 H        -2.720295         1.139750         0.037186
 H        -2.316043        -0.521192         1.754367
 H        -3.184850        -1.346460        -1.594153
 H        -5.374827        -0.573488        -1.652153
 H        -5.118092         0.803974        -0.664724
 H        -4.460259         0.878971        -3.654730
 H        -4.160683         2.308653        -2.518181
