19
Iteration:  4214
 C         1.345253        -0.422020         0.240104
 C         0.024329        -0.136499        -0.132985
 C        -1.013703         0.498743        -0.379572
 C        -2.359267         1.095739        -0.350343
 O        -2.737250         1.352895         0.969705
 C        -3.416576        -0.020294        -0.746173
 C        -4.824243         0.156160        -1.395194
 C        -4.244394        -0.636320        -2.614505
 O        -2.892683        -0.627731        -1.959455
 H         1.617705         0.309883         1.119489
 H         1.503136        -1.438696         0.682547
 H         1.866044        -0.155718        -0.621279
 H        -2.433097         1.973317        -0.965919
 H        -2.654243         2.233511         1.269730
 H        -3.290454        -0.666526         0.137214
 H        -5.505035        -0.537515        -0.902327
 H        -5.279964         1.155433        -1.560300
 H        -4.718943        -1.657303        -2.572702
 H        -4.243024        -0.476956        -3.679273
