19
Iteration:  4659charge 0 multiplicity 1
 C         1.417317        -0.507296        -0.017546
 C         0.074614         0.061154        -0.131178
 C        -1.067652         0.556967         0.002187
 C        -2.386244         0.926890        -0.362806
 O        -3.039446         1.633227         0.788808
 C        -3.341849        -0.170207        -0.662935
 C        -4.521824         0.373997        -1.424764
 C        -4.280102        -0.681765        -2.455404
 O        -2.954677        -0.901665        -1.917085
 H         1.749700        -0.682538         0.968802
 H         1.511464        -1.531127        -0.503628
 H         1.984779         0.360676        -0.510026
 H        -2.416414         1.599079        -1.244977
 H        -2.328846         2.212425         1.194922
 H        -3.574875        -0.938581         0.122738
 H        -5.578443         0.189895        -1.173419
 H        -4.136329         1.303542        -1.842867
 H        -4.873173        -1.617012        -2.200117
 H        -4.257012        -0.547195        -3.592649
