19
Iteration:  3853
 C         1.484688        -0.314399         0.280196
 C         0.114279        -0.102807         0.036357
 C        -1.062238         0.210526         0.085370
 C        -2.248223         0.878690        -0.343060
 O        -2.893390         1.660719         0.735594
 C        -3.177652        -0.219824        -0.962784
 C        -4.715825        -0.088550        -1.034096
 C        -4.435320        -0.569142        -2.458060
 O        -3.078019        -0.266099        -2.468529
 H         1.754752        -0.309981         1.382111
 H         1.842468        -1.330354        -0.001751
 H         2.014813         0.424869        -0.195302
 H        -2.128766         1.572617        -1.218855
 H        -3.732182         1.210055         1.105515
 H        -2.963362        -1.249296        -0.554198
 H        -5.449085        -0.746247        -0.478276
 H        -5.071541         0.958668        -0.963395
 H        -4.523641        -1.670284        -2.688028
 H        -4.803068         0.082862        -3.392432
