19
Iteration:   990
 C         1.472968         0.155970        -0.055243
 C         0.039009         0.180870         0.102849
 C        -1.171122         0.150172        -0.054886
 C        -2.639835         0.344783         0.137936
 O        -3.255506        -0.318251         1.205152
 C        -3.376467        -0.351182        -1.110129
 C        -4.653314         0.353118        -1.474627
 C        -3.797226         0.979875        -2.592875
 O        -2.721200        -0.042959        -2.406753
 H         2.047425         0.732270         0.677333
 H         1.792633        -0.819049         0.169589
 H         1.724346         0.253430        -1.176858
 H        -3.017095         1.363780        -0.008208
 H        -2.791996        -0.977854         1.703500
 H        -3.446161        -1.445557        -0.858733
 H        -5.463023        -0.373162        -1.770887
 H        -5.009037         1.108857        -0.729246
 H        -4.371020         1.032594        -3.577162
 H        -3.420438         1.878652        -2.111875
