19
Iteration:  3198
 C         1.436996        -0.226703         0.546650
 C         0.085012         0.140544         0.128200
 C        -0.991807         0.426862        -0.417469
 C        -2.446838         0.749574        -0.370617
 O        -2.620699         0.909811         1.183465
 C        -3.262282        -0.395396        -1.053036
 C        -4.737238        -0.026566        -1.184606
 C        -4.451262         0.134325        -2.726463
 O        -3.059844        -0.409428        -2.469899
 H         1.389382        -1.215680         1.079313
 H         1.964642        -0.432225        -0.429577
 H         1.915796         0.491471         1.339900
 H        -2.614948         1.715933        -0.799551
 H        -3.586953         1.195933         1.282669
 H        -2.914011        -1.412661        -0.691979
 H        -5.443617        -0.818366        -0.895376
 H        -5.014673         0.825671        -0.597515
 H        -5.071595        -0.430393        -3.340378
 H        -4.402559         1.204652        -2.921603
