19
Iteration:  2900charge 0 multiplicity 1
 C         1.369116        -0.342014        -0.177074
 C        -0.039671         0.019348        -0.126958
 C        -1.136941         0.542789         0.046485
 C        -2.604490         0.776808         0.097103
 O        -2.950322         0.695747         1.440545
 C        -3.392332        -0.195730        -0.893866
 C        -4.693719         0.265961        -1.545010
 C        -3.938651        -0.159430        -2.896668
 O        -2.715263        -0.213843        -2.171555
 H         1.686386        -1.348811         0.044965
 H         1.817201         0.063649        -1.109952
 H         1.757863         0.270548         0.604090
 H        -2.727368         1.966312        -0.249295
 H        -3.601617        -0.036671         1.464656
 H        -3.451338        -1.225710        -0.492164
 H        -5.511597        -0.488773        -1.378095
 H        -4.998742         1.373986        -1.592998
 H        -4.384391        -1.091098        -3.337754
 H        -3.776945         0.681941        -3.755367
