19
Iteration:    96charge 0 multiplicity 1
 C         1.645593        -0.079902         0.466743
 C         0.195102        -0.082741         0.282804
 C        -0.981005         0.110826        -0.049313
 C        -2.500349         0.040833        -0.098679
 O        -2.971755        -0.988868         0.867020
 C        -3.238839        -0.150477        -1.528222
 C        -4.776839         0.180770        -1.439657
 C        -4.391721         1.393153        -2.260126
 O        -3.029405         0.916619        -2.499406
 H         2.130295        -0.851513        -0.285571
 H         1.913508         0.958754         0.077105
 H         1.994460        -0.074152         1.588589
 H        -2.915462         1.052896         0.210902
 H        -2.620120        -0.609368         1.690474
 H        -2.957825        -1.151645        -1.925310
 H        -5.300569        -0.532254        -2.077101
 H        -5.162242         0.280077        -0.348298
 H        -5.072198         1.497634        -3.095428
 H        -4.504648         2.376809        -1.690902
