19
Iteration:   807charge 0 multiplicity 1
 C         1.592569        -0.119688        -0.123342
 C         0.145376         0.046143         0.318916
 C        -1.091345         0.127934         0.278034
 C        -2.529642         0.320726         0.115253
 O        -3.447131        -0.402772         1.017063
 C        -3.068718        -0.141075        -1.232156
 C        -4.632628         0.150103        -1.349904
 C        -4.189094         0.569627        -2.789895
 O        -2.797965         0.820376        -2.344591
 H         1.530198        -0.809910        -0.885391
 H         1.814862         0.833591        -0.681623
 H         2.336505        -0.332922         0.674309
 H        -2.785378         1.376183         0.331670
 H        -2.821454        -0.510544         1.835598
 H        -2.945513        -1.297712        -1.319415
 H        -5.355334        -0.689892        -1.379941
 H        -5.086320         0.926974        -0.745154
 H        -4.001703        -0.339627        -3.371991
 H        -4.580439         1.481281        -3.286138
