19
Iteration:  3939charge 0 multiplicity 1
 C         1.357737        -0.588366         0.235479
 C         0.224974         0.288971        -0.138997
 C        -0.934008         0.588405        -0.294347
 C        -2.357661         1.010517        -0.286716
 O        -3.084059         1.309225         0.973049
 C        -3.265720        -0.237540        -0.860046
 C        -4.675098         0.212368        -1.229475
 C        -4.393909        -0.583775        -2.495668
 O        -2.874181        -0.676564        -2.204173
 H         0.940461        -1.562476         0.641833
 H         2.096268        -0.627402        -0.586645
 H         1.790161        -0.130810         1.141933
 H        -2.429558         1.947934        -0.818857
 H        -3.006457         2.230353         1.048658
 H        -3.132337        -1.126755        -0.169121
 H        -5.556974        -0.013271        -0.597854
 H        -4.639345         1.308994        -1.361876
 H        -4.760382        -1.576655        -2.784185
 H        -4.530018        -0.089967        -3.456175
