19
Iteration:  1858
 C         1.576720        -0.261519         0.601618
 C         0.283399         0.033317         0.067775
 C        -0.947929         0.187010        -0.225040
 C        -2.529261         0.472784        -0.064051
 O        -3.016003         0.216430         1.237112
 C        -3.215939        -0.295680        -1.309616
 C        -4.751007        -0.154962        -1.440996
 C        -4.438524         0.696207        -2.704130
 O        -2.999332         0.452220        -2.484921
 H         1.636368        -0.757576         1.592564
 H         2.064228        -0.843531        -0.222259
 H         2.215757         0.806885         0.712791
 H        -2.614280         1.470189        -0.331535
 H        -2.572360        -0.570701         1.612871
 H        -2.831472        -1.324089        -1.438261
 H        -5.395291        -1.005003        -1.752115
 H        -5.370428         0.354434        -0.673565
 H        -4.900054         0.133252        -3.549414
 H        -4.806343         1.684766        -2.572850
