19
Iteration:  3753charge 0 multiplicity 1
 C         1.420041        -0.354778         0.625777
 C         0.114804         0.044091         0.059492
 C        -0.899186         0.568332        -0.427797
 C        -2.314978         0.893691        -0.471777
 O        -2.733479         1.269191         0.918656
 C        -3.200564        -0.299241        -0.965815
 C        -4.631523        -0.127367        -1.022933
 C        -4.595642        -0.268300        -2.517461
 O        -3.173604        -0.493680        -2.497966
 H         2.132061         0.492441         0.471124
 H         1.337214        -0.582206         1.684081
 H         1.912700        -1.127529         0.106475
 H        -2.618816         1.781630        -1.061355
 H        -3.405637         1.940237         0.891398
 H        -2.710443        -1.176242        -0.550396
 H        -4.978210        -0.913228        -0.326998
 H        -4.999654         0.819062        -0.614904
 H        -5.140619        -1.049442        -3.074972
 H        -4.813780         0.697896        -3.101639
