19
Iteration:  1811charge 0 multiplicity 1
 C         1.668050        -0.123686         0.267156
 C         0.125853        -0.151332         0.327373
 C        -1.047530         0.086174         0.087098
 C        -2.424255         0.488826        -0.129278
 O        -3.308337         0.047640         1.041797
 C        -3.063812        -0.253004        -1.313744
 C        -4.598442        -0.036272        -1.226892
 C        -4.381377         0.677547        -2.678934
 O        -2.977623         0.488545        -2.589219
 H         1.941751         0.249948         1.275517
 H         2.085247        -1.067701        -0.027994
 H         1.936145         0.799633        -0.365901
 H        -2.446599         1.573735        -0.240259
 H        -2.902480         0.205834         1.862881
 H        -2.782832        -1.344337        -1.340476
 H        -5.254696        -0.897865        -1.103370
 H        -4.958184         0.713476        -0.488504
 H        -4.951932        -0.025079        -3.389609
 H        -4.531638         1.711438        -2.900665
