19
Iteration:  3788charge 0 multiplicity 1
 C         1.514439        -0.399692         0.438092
 C         0.189998         0.147037         0.342453
 C        -0.877137         0.471265        -0.120069
 C        -2.273977         0.878873        -0.534814
 O        -2.818284         1.356220         0.743355
 C        -3.167712        -0.251001        -1.028437
 C        -4.659024        -0.103487        -0.951186
 C        -4.641813        -0.365981        -2.553428
 O        -3.205946        -0.437776        -2.499124
 H         2.162401         0.398029         0.914471
 H         1.563043        -1.279735         1.152879
 H         1.851930        -0.702970        -0.498005
 H        -2.144121         1.754332        -1.211580
 H        -3.709897         1.079026         0.641616
 H        -2.881171        -1.147271        -0.514544
 H        -5.196589        -0.889306        -0.366320
 H        -5.141042         0.869952        -0.820445
 H        -5.215096        -1.169067        -2.902531
 H        -5.000886         0.647100        -2.902940
