19
Iteration:  2933
 C         1.332777        -0.432324        -0.091048
 C        -0.019102         0.215004        -0.117456
 C        -1.203184         0.547155        -0.170136
 C        -2.572400         0.845635         0.094762
 O        -3.031765         0.584640         1.394763
 C        -3.275760        -0.152098        -0.911513
 C        -4.566754         0.285083        -1.392305
 C        -4.055079        -0.221972        -2.809842
 O        -2.657959        -0.223343        -2.242098
 H         1.441298        -1.342396        -0.631723
 H         2.109652         0.268852        -0.459970
 H         1.546549        -0.487698         0.941600
 H        -2.903014         1.843097        -0.409742
 H        -4.046936         0.461991         1.340751
 H        -3.258037        -1.181589        -0.562291
 H        -5.448929        -0.318133        -1.111596
 H        -4.811758         1.398016        -1.349033
 H        -4.401420        -1.230709        -3.153620
 H        -3.954562         0.538349        -3.732971
