19
Iteration:  2779
 C         1.474097        -0.202044        -0.236062
 C         0.079024         0.009816         0.042793
 C        -1.087944         0.279992         0.245054
 C        -2.447242         0.703921        -0.041980
 O        -3.165531         0.691826         1.216626
 C        -3.292422        -0.261738        -0.893908
 C        -4.701780         0.215185        -1.468331
 C        -4.020276         0.285767        -2.805092
 O        -2.832615        -0.406452        -2.201104
 H         2.154596         0.563068         0.128925
 H         1.490558        -1.252486         0.206181
 H         1.780840        -0.451009        -1.280522
 H        -2.525446         1.674725        -0.439422
 H        -4.071739         0.767208         0.957272
 H        -3.307183        -1.182444        -0.288665
 H        -5.491534        -0.554832        -1.243491
 H        -5.073008         1.199660        -0.997219
 H        -4.456890        -0.219086        -3.638523
 H        -3.656679         1.272475        -3.216208
