19
Iteration:  2581charge 0 multiplicity 1
 C         1.564848        -0.239141         0.299988
 C         0.149567        -0.146220         0.079529
 C        -1.010803         0.234326         0.084872
 C        -2.426553         0.730359        -0.067932
 O        -3.009802         0.702609         1.178249
 C        -3.185427        -0.218186        -1.192858
 C        -4.705068         0.002856        -1.257493
 C        -4.455766         0.118435        -2.772429
 O        -2.969199         0.101639        -2.605444
 H         1.916738        -1.116755         0.950239
 H         2.133950        -0.279947        -0.675773
 H         1.795818         0.690927         0.897312
 H        -2.354085         1.824701        -0.471273
 H        -3.480562        -0.109119         1.421039
 H        -2.873640        -1.235824        -0.831016
 H        -5.400105        -0.747088        -0.819191
 H        -4.840339         0.964048        -0.684074
 H        -4.786718        -0.821992        -3.148061
 H        -4.705628         0.947672        -3.370130
