19
Iteration:   687charge 0 multiplicity 1
 C         1.454417        -0.392960         0.269540
 C         0.107033         0.158013         0.165446
 C        -1.107396         0.337924         0.109488
 C        -2.583893         0.385490         0.058115
 O        -3.008385        -0.371372         1.230789
 C        -3.032937        -0.154261        -1.357288
 C        -4.575997        -0.245418        -1.629988
 C        -4.419947         0.885545        -2.662478
 O        -2.946390         0.865894        -2.416097
 H         1.616638        -0.604658         1.299053
 H         1.392579        -1.418462        -0.257857
 H         2.251262         0.325670        -0.080163
 H        -2.866300         1.430865         0.093804
 H        -2.224364        -0.845005         1.368227
 H        -2.260474        -0.943680        -1.512840
 H        -5.002410        -1.176027        -2.048629
 H        -5.104222        -0.079792        -0.686337
 H        -4.567330         0.764584        -3.795397
 H        -5.147799         1.717950        -2.318784
