19
Iteration:    47
 C         1.505090        -0.069937         0.361513
 C         0.082129         0.045783        -0.033912
 C        -1.099943         0.096341        -0.268482
 C        -2.511159         0.049371         0.036909
 O        -2.973451        -0.998828         0.964150
 C        -3.177753        -0.202065        -1.368193
 C        -4.695234         0.069720        -1.464115
 C        -4.301627         1.405128        -2.280781
 O        -2.829899         1.007025        -2.258028
 H         1.547265        -1.037645         0.721362
 H         2.345197         0.123953        -0.290455
 H         1.554258         0.607246         1.309316
 H        -2.800835         1.059982         0.423782
 H        -3.938736        -1.042145         0.721451
 H        -2.793725        -1.146982        -1.765336
 H        -5.258786        -0.725740        -2.046513
 H        -5.162067         0.255682        -0.558645
 H        -4.789003         1.474413        -3.298414
 H        -4.545639         2.317430        -1.790780
