19
Iteration:  2472charge 0 multiplicity 1
 C         1.510156        -0.452300         0.258242
 C         0.093463         0.046578         0.141249
 C        -1.016993         0.483575        -0.031302
 C        -2.424694         0.761019        -0.088909
 O        -3.073978         0.381971         1.073021
 C        -3.051792        -0.197241        -1.155413
 C        -4.635461         0.013994        -1.220537
 C        -4.411056         0.149299        -2.695308
 O        -2.992732         0.146502        -2.521672
 H         1.855610         0.338731         0.889816
 H         1.714656        -1.295368         0.834376
 H         2.033264        -0.524058        -0.673113
 H        -2.529529         1.741520        -0.362229
 H        -3.498153         1.222249         1.466898
 H        -2.768283        -1.207954        -0.880598
 H        -5.162650        -0.898768        -0.829917
 H        -5.070756         0.931090        -0.751850
 H        -4.611130        -0.781269        -3.342548
 H        -4.748129         1.125057        -3.150452
