19
Iteration:  2959charge 0 multiplicity 1
 C         1.375869        -0.435913        -0.092524
 C         0.102174         0.257681        -0.039436
 C        -1.059602         0.630416         0.048987
 C        -2.473113         0.874416         0.045790
 O        -3.068999         0.546979         1.309995
 C        -3.290934        -0.162782        -0.958817
 C        -4.686587         0.183760        -1.410337
 C        -4.197627        -0.226126        -2.859475
 O        -2.706802        -0.222582        -2.277116
 H         1.473880        -1.056375        -0.983644
 H         2.229615         0.183999         0.059424
 H         1.316201        -1.161971         0.816959
 H        -2.697650         1.924429        -0.330332
 H        -3.780389         1.256541         1.474754
 H        -3.214570        -1.198194        -0.539033
 H        -5.636885        -0.307616        -1.093243
 H        -4.894332         1.294725        -1.332604
 H        -4.499827        -1.239058        -3.198207
 H        -4.202166         0.422335        -3.670936
