19
Iteration:  2755charge 0 multiplicity 1
 C         1.509399        -0.291179        -0.128532
 C         0.074709         0.052617         0.052102
 C        -1.138412         0.307336         0.029552
 C        -2.581132         0.626920        -0.002573
 O        -3.048933         0.823159         1.343120
 C        -3.361039        -0.349062        -0.959067
 C        -4.739813         0.150420        -1.393328
 C        -4.002875         0.349798        -2.816538
 O        -2.768293        -0.371808        -2.323461
 H         1.993060         0.689511        -0.265411
 H         1.932183        -0.949224         0.685634
 H         1.737492        -0.816575        -1.001378
 H        -2.764550         1.602511        -0.345706
 H        -4.000673         0.482195         1.379091
 H        -3.269151        -1.303336        -0.460512
 H        -5.556781        -0.583251        -1.328797
 H        -5.078621         1.050389        -0.885418
 H        -4.456638        -0.186713        -3.689495
 H        -3.673531         1.390310        -3.240148
