19
Iteration:  2907charge 0 multiplicity 1
 C         1.349140        -0.336946        -0.115216
 C        -0.087758         0.035570        -0.171233
 C        -1.158449         0.570869         0.037427
 C        -2.559914         0.792233         0.038040
 O        -2.944564         0.656917         1.438081
 C        -3.341187        -0.169083        -0.859735
 C        -4.674826         0.263987        -1.552678
 C        -3.942428        -0.161781        -2.817801
 O        -2.739189        -0.209145        -2.195832
 H         1.547927        -1.471920        -0.258674
 H         1.855206         0.099542        -1.031472
 H         1.816013         0.179728         0.738591
 H        -2.848621         1.646550        -0.500127
 H        -3.710620        -0.020171         1.494965
 H        -3.315082        -1.230066        -0.527876
 H        -5.597251        -0.281346        -1.509062
 H        -4.805272         1.288461        -1.567030
 H        -4.192942        -1.132768        -3.294664
 H        -3.904936         0.591077        -3.575010
