19
Iteration:   647charge 0 multiplicity 1
 C         1.546972        -0.241302         0.322877
 C         0.097036        -0.004589         0.341016
 C        -1.054010         0.332935         0.127808
 C        -2.480465         0.448296        -0.054477
 O        -3.082714        -0.397100         0.916626
 C        -3.035566        -0.145805        -1.343865
 C        -4.615902        -0.186304        -1.427597
 C        -4.457530         0.973999        -2.528213
 O        -2.970237         0.713706        -2.487298
 H         2.073016         0.182648         1.244797
 H         1.683251        -1.350401         0.469529
 H         2.004825         0.092658        -0.542267
 H        -3.024171         1.408905         0.170921
 H        -2.802288        -1.378826         0.701197
 H        -2.507390        -1.098901        -1.573286
 H        -5.027645        -1.175727        -1.729695
 H        -5.206180         0.180386        -0.595549
 H        -4.849790         0.744711        -3.485541
 H        -4.595367         1.972386        -2.257894
