19
Iteration:   966charge 0 multiplicity 1
 C         1.420318         0.075171        -0.015624
 C         0.023174         0.212411        -0.066285
 C        -1.169426         0.385607         0.098830
 C        -2.648788         0.329031         0.067507
 O        -3.236620        -0.435748         1.222214
 C        -3.281613        -0.381658        -1.166577
 C        -4.603201         0.430463        -1.400978
 C        -3.748907         0.979391        -2.616701
 O        -2.857332        -0.087364        -2.432905
 H         1.851170         0.997036         0.507994
 H         1.679980        -0.635009         0.724032
 H         1.889843        -0.192444        -0.913898
 H        -3.195853         1.269787         0.048551
 H        -2.633273        -0.962241         1.872168
 H        -3.208000        -1.481715        -0.817189
 H        -5.484774        -0.051307        -1.906488
 H        -4.897161         1.014573        -0.472818
 H        -4.295682         0.926066        -3.586555
 H        -3.200195         1.855589        -2.364234
