19
Iteration:  4977charge 0 multiplicity 1
 C         1.402566        -0.435746         0.526998
 C         0.202122         0.204934         0.003921
 C        -0.856106         0.534540        -0.496868
 C        -2.223647         1.002110        -0.700030
 O        -2.701651         1.419412         0.681704
 C        -3.313378        -0.167168        -0.826250
 C        -4.792540         0.286162        -1.199732
 C        -4.562285        -0.631000        -2.389885
 O        -3.189808        -0.967143        -1.946707
 H         2.117519         0.427361         0.573139
 H         1.391412        -0.844744         1.523308
 H         1.739782        -1.054362        -0.336741
 H        -2.512365         1.722346        -1.483245
 H        -2.529498         2.374736         0.669897
 H        -3.246265        -0.637756         0.281493
 H        -5.433495         0.029783        -0.338695
 H        -4.834785         1.343501        -1.341475
 H        -5.245253        -1.424104        -2.573431
 H        -4.548651         0.056252        -3.234845
