19
Iteration:   986
 C         1.497820         0.134607        -0.049964
 C         0.018553         0.191591         0.068617
 C        -1.212861         0.206334        -0.056517
 C        -2.634054         0.347582         0.148045
 O        -3.282992        -0.343773         1.193987
 C        -3.376053        -0.355586        -1.103695
 C        -4.637320         0.366929        -1.440946
 C        -3.787938         0.999165        -2.577533
 O        -2.720166        -0.080965        -2.436955
 H         2.109151         0.833361         0.643097
 H         1.843816        -0.872278         0.324870
 H         1.666960         0.222100        -1.048203
 H        -2.966032         1.383565         0.057067
 H        -2.579202        -0.932906         1.615057
 H        -3.458772        -1.478936        -0.925798
 H        -5.348083        -0.431524        -1.696319
 H        -4.952228         1.167443        -0.739381
 H        -4.348146         0.994108        -3.477117
 H        -3.432050         1.959687        -2.196026
