19
Iteration:  4396charge 0 multiplicity 1
 C         1.622219        -0.289980         0.351280
 C         0.193618        -0.007027         0.195939
 C        -0.937069         0.334401        -0.034548
 C        -2.232307         0.873773        -0.423881
 O        -2.798051         1.720627         0.560712
 C        -3.332202        -0.210937        -0.865202
 C        -4.889254        -0.085141        -1.087367
 C        -4.609327        -0.488080        -2.505747
 O        -3.137475        -0.698687        -2.293375
 H         1.811373        -1.269928        -0.064690
 H         2.243772         0.440249        -0.190407
 H         1.981838        -0.581639         1.422801
 H        -1.990221         1.546945        -1.277975
 H        -2.314365         2.612444         0.532581
 H        -3.156857        -0.973671        -0.155320
 H        -5.419791        -0.864260        -0.544209
 H        -5.344616         0.880097        -0.848243
 H        -4.959930        -1.279503        -3.072347
 H        -4.764108         0.385606        -3.127526
