19
Iteration:  4706
 C         1.397881        -0.533046        -0.027866
 C         0.039098        -0.028336        -0.091485
 C        -1.125033         0.428376        -0.178667
 C        -2.437131         1.150024        -0.376846
 O        -2.872050         1.742698         0.879541
 C        -3.403680        -0.010094        -0.729333
 C        -4.772712         0.190630        -1.494447
 C        -4.138405        -0.843399        -2.534509
 O        -2.868533        -0.757172        -1.761691
 H         1.319803        -1.375140         0.674772
 H         1.664305        -1.119181        -0.980490
 H         2.141963         0.260218         0.244091
 H        -2.301601         1.936711        -1.162368
 H        -2.256256         1.264753         1.513959
 H        -3.596674        -0.559171         0.291973
 H        -5.569945        -0.317401        -0.894051
 H        -4.958335         1.223752        -1.772401
 H        -4.503010        -1.918386        -2.495262
 H        -3.901088        -0.628505        -3.571776
