19
Iteration:  4982
 C         1.419561        -0.432340         0.560168
 C         0.228858         0.203073        -0.041621
 C        -0.825201         0.528762        -0.528464
 C        -2.249192         0.992710        -0.695336
 O        -2.690314         1.414373         0.683353
 C        -3.340313        -0.134193        -0.797674
 C        -4.806548         0.272690        -1.176914
 C        -4.565329        -0.614663        -2.385445
 O        -3.176417        -0.980826        -1.966733
 H         2.071637         0.420453         0.721451
 H         1.267772        -0.866080         1.587736
 H         1.758732        -1.010322        -0.293993
 H        -2.519342         1.754939        -1.447420
 H        -2.621425         2.377741         0.698598
 H        -3.467154        -0.603661         0.105278
 H        -5.442209         0.035271        -0.331691
 H        -4.820682         1.389338        -1.359320
 H        -5.266315        -1.500954        -2.549047
 H        -4.515948         0.028839        -3.297815
