19
Iteration:  2849
 C         1.412616        -0.226357        -0.293999
 C         0.010183         0.076176        -0.027703
 C        -1.153925         0.304244         0.180143
 C        -2.535685         0.660423         0.004804
 O        -3.234919         0.694141         1.312168
 C        -3.341448        -0.201173        -0.873886
 C        -4.658340         0.308648        -1.493166
 C        -3.960191         0.049372        -2.865557
 O        -2.677922        -0.325150        -2.137025
 H         1.808930        -0.703764         0.619768
 H         1.297996        -0.899300        -1.125294
 H         2.246892         0.589423        -0.564367
 H        -2.452035         1.600423        -0.448296
 H        -2.467934         0.707534         1.854369
 H        -3.409268        -1.212867        -0.401198
 H        -5.611149        -0.228430        -1.529881
 H        -4.923583         1.394185        -1.322457
 H        -4.340401        -0.848937        -3.356454
 H        -3.916395         0.801529        -3.547302
