19
Iteration:  4115charge 0 multiplicity 1
 C         1.531583        -0.445342        -0.214552
 C         0.102978         0.065142         0.089954
 C        -1.046294         0.436196         0.092766
 C        -2.395552         0.936059        -0.319165
 O        -3.163421         1.571311         0.711714
 C        -3.375708        -0.261879        -0.690832
 C        -4.629483         0.354935        -1.311369
 C        -3.998027        -0.256084        -2.659061
 O        -3.041727        -1.086517        -1.819607
 H         1.935726         0.432949        -0.889668
 H         2.201729        -0.746707         0.670658
 H         1.504577        -1.253228        -0.952188
 H        -2.501056         1.679742        -1.196600
 H        -3.621455         0.945936         1.238560
 H        -3.535747        -0.911996         0.152525
 H        -5.555960        -0.100825        -0.941008
 H        -4.616638         1.434813        -1.130269
 H        -4.550007        -0.902533        -3.354940
 H        -3.348718         0.479177        -3.180744
