19
Iteration:  3150
 C         1.553696        -0.283136         0.600864
 C         0.253047         0.184511        -0.093188
 C        -0.961181         0.417142        -0.161952
 C        -2.361701         0.825357        -0.354775
 O        -2.985864         0.740551         0.934674
 C        -3.175882        -0.352798        -1.036433
 C        -4.694882        -0.014993        -1.074287
 C        -4.441033         0.169933        -2.603236
 O        -3.139850        -0.383148        -2.511329
 H         1.494039        -0.331948         1.782641
 H         1.936256        -1.313370         0.160853
 H         2.199494         0.575550         0.465140
 H        -2.574317         1.716822        -1.005108
 H        -3.250019         1.603104         1.191507
 H        -2.774345        -1.381427        -0.678088
 H        -5.393081        -0.793533        -0.767790
 H        -5.149478         0.936202        -0.676932
 H        -5.067465        -0.509198        -3.184083
 H        -4.561787         1.183211        -2.877765
