19
Iteration:  1427charge 0 multiplicity 1
 C         1.405734        -0.228789         0.235634
 C         0.097685         0.290959        -0.027810
 C        -1.127826         0.442085        -0.130304
 C        -2.654460         0.407442         0.017628
 O        -3.075336        -0.205759         1.284353
 C        -3.219284        -0.369611        -1.132884
 C        -4.661142         0.183308        -1.425570
 C        -4.099502         0.849777        -2.641262
 O        -2.775070         0.157620        -2.495714
 H         1.622681        -0.173568         1.381346
 H         1.541257        -1.225665         0.077007
 H         2.188757         0.441221        -0.223391
 H        -3.058291         1.394403         0.104194
 H        -2.637708        -1.150854         1.251624
 H        -3.081241        -1.492049        -1.087012
 H        -5.342776        -0.595175        -1.769178
 H        -5.039078         0.684039        -0.533597
 H        -4.635559         0.765015        -3.651770
 H        -3.934645         1.978301        -2.390582
