19
Iteration:  4528charge 0 multiplicity 1
 C         1.414928        -0.195871         0.456698
 C         0.101615        -0.045701        -0.005668
 C        -0.936511         0.420704        -0.437854
 C        -2.319076         0.903048        -0.577468
 O        -2.565745         1.633516         0.712168
 C        -3.423995        -0.204043        -0.789654
 C        -4.882260         0.084841        -1.170172
 C        -4.393796        -0.435612        -2.562950
 O        -3.132464        -0.882625        -1.979276
 H         1.947930         0.567831        -0.005457
 H         1.537582        -0.391507         1.547837
 H         1.902239        -1.173277         0.007804
 H        -2.404554         1.653317        -1.382145
 H        -2.433434         1.023756         1.519795
 H        -3.254953        -0.979581         0.025131
 H        -5.686167        -0.381663        -0.580822
 H        -5.203946         1.160769        -1.019605
 H        -4.892071        -1.331803        -2.896816
 H        -4.156661         0.280272        -3.380688
