19
Iteration:  2659charge 0 multiplicity 1
 C         1.459999        -0.397666         0.243998
 C         0.116614         0.174088         0.060684
 C        -1.044700         0.485034        -0.034586
 C        -2.502734         0.705580        -0.145162
 O        -2.919527         0.531990         1.230622
 C        -3.239529        -0.364894        -1.026138
 C        -4.712268         0.071088        -1.283700
 C        -4.279369         0.329082        -2.787664
 O        -2.946648        -0.224040        -2.516054
 H         1.590328        -0.943821        -0.684233
 H         2.218591         0.397130         0.296222
 H         1.692589        -0.922186         1.253329
 H        -2.595677         1.726662        -0.722633
 H        -3.246290         1.327914         1.774674
 H        -2.825994        -1.309644        -0.614364
 H        -5.503197        -0.726753        -1.179389
 H        -5.073520         1.025701        -0.743990
 H        -4.790251        -0.148426        -3.590334
 H        -4.269831         1.372990        -3.027783
