19
Iteration:  1113charge 0 multiplicity 1
 C         1.469213        -0.260204        -0.129492
 C         0.134878         0.169563         0.224777
 C        -1.067090         0.260338         0.277479
 C        -2.568084         0.405134         0.187226
 O        -3.413870        -0.203867         1.282118
 C        -3.054444        -0.193540        -1.279919
 C        -4.626012         0.026343        -1.455037
 C        -4.147541         0.587784        -2.808045
 O        -2.747451         0.619313        -2.447002
 H         1.585913        -1.242061         0.041543
 H         1.587138        -0.014107        -1.200065
 H         2.211179         0.426530         0.404008
 H        -2.698262         1.484962         0.218415
 H        -2.873715        -0.882143         1.622921
 H        -2.645079        -1.227654        -1.257741
 H        -5.293476        -0.794420        -1.470369
 H        -5.069223         0.708188        -0.756932
 H        -4.459028         0.116244        -3.740892
 H        -4.549812         1.599874        -2.888447
