19
Iteration:   242
 C         1.534259        -0.066799         0.012400
 C         0.065641         0.060902         0.011974
 C        -1.156964         0.110664         0.153254
 C        -2.639506         0.070076         0.161759
 O        -3.138680        -0.983887         1.011098
 C        -3.103717        -0.164032        -1.284068
 C        -4.680922         0.173097        -1.608372
 C        -4.154944         1.103828        -2.633314
 O        -2.835712         1.058282        -2.056732
 H         2.051649         1.037525         0.206231
 H         1.769038        -0.807084         0.851099
 H         1.916218        -0.436053        -0.916822
 H        -3.050053         1.100412         0.486815
 H        -3.056651        -0.643679         1.885986
 H        -2.536192        -0.981419        -1.802478
 H        -5.223931        -0.703571        -2.020065
 H        -5.136211         0.691647        -0.848934
 H        -4.095985         0.699593        -3.622130
 H        -4.507834         2.148358        -2.716975
