19
Iteration:   959
 C         1.420077         0.083572         0.022827
 C        -0.016488         0.206478        -0.115006
 C        -1.178128         0.421100         0.168510
 C        -2.566269         0.318060         0.162571
 O        -3.198569        -0.436861         1.210147
 C        -3.349212        -0.441880        -1.166171
 C        -4.630263         0.428550        -1.443159
 C        -3.755743         0.999130        -2.629830
 O        -2.846486        -0.095304        -2.457184
 H         1.952791         0.984458         0.285066
 H         1.430791        -0.619269         0.927463
 H         1.944911        -0.345781        -0.984160
 H        -3.083326         1.318463         0.086873
 H        -2.430163        -0.829398         1.733680
 H        -3.314336        -1.517481        -1.115527
 H        -5.475647        -0.221857        -1.712974
 H        -4.856240         1.170843        -0.688504
 H        -4.346894         1.085895        -3.600665
 H        -3.286657         2.041761        -2.449263
