19
Iteration:  4956charge 0 multiplicity 1
 C         1.447637        -0.419400         0.347908
 C         0.124317         0.107863         0.135502
 C        -0.926984         0.537384        -0.356081
 C        -2.284489         1.005277        -0.564103
 O        -2.778806         1.608535         0.611976
 C        -3.258032        -0.206013        -0.802885
 C        -4.667857         0.266028        -1.155228
 C        -4.512912        -0.593059        -2.434092
 O        -3.185349        -1.044561        -2.045417
 H         2.187844         0.368525         0.142029
 H         1.500165        -0.558066         1.394424
 H         1.386094        -1.208300        -0.433902
 H        -2.496439         1.668903        -1.412008
 H        -2.023890         2.108641         0.905972
 H        -3.432852        -0.761865         0.181568
 H        -5.407767        -0.046394        -0.412094
 H        -4.634370         1.338707        -1.175034
 H        -5.246305        -1.387461        -2.340103
 H        -4.554062        -0.161827        -3.450960
