19
Iteration:  2699
 C         1.434312        -0.321381         0.219288
 C         0.055999         0.001587        -0.188390
 C        -1.099134         0.382606        -0.181131
 C        -2.500683         0.766417        -0.136229
 O        -2.930964         0.610572         1.278996
 C        -3.267792        -0.285721        -0.852440
 C        -4.765303         0.017097        -1.434419
 C        -4.090366         0.355156        -2.704477
 O        -2.874569        -0.222737        -2.304865
 H         2.046444        -0.120568        -0.727291
 H         1.893765         0.405055         1.021782
 H         1.553365        -1.324319         0.429591
 H        -2.778549         1.737515        -0.443597
 H        -3.858879         0.764245         1.210351
 H        -3.124900        -1.269050        -0.411164
 H        -5.449689        -0.808307        -1.393596
 H        -5.245224         0.872636        -0.994679
 H        -4.515050        -0.199299        -3.601683
 H        -3.917948         1.504965        -2.811200
