19
Iteration:  4453
 C         1.496008        -0.299558         0.520439
 C         0.195117         0.179282         0.011184
 C        -0.931317         0.441773        -0.424834
 C        -2.322118         0.769241        -0.676746
 O        -2.946526         1.451055         0.541219
 C        -3.255724        -0.433590        -0.766802
 C        -4.650142         0.295230        -0.964831
 C        -4.485867        -0.328012        -2.435121
 O        -3.161549        -0.824266        -2.118611
 H         2.186751        -0.557981        -0.283795
 H         2.061816         0.392368         1.215802
 H         1.241966        -1.111142         1.256851
 H        -2.431143         1.448823        -1.538439
 H        -2.366950         1.989080         1.049608
 H        -3.137121        -1.204557        -0.067951
 H        -5.475800        -0.265209        -0.465982
 H        -4.569934         1.357540        -0.649044
 H        -5.040807        -1.215180        -2.714127
 H        -4.386767         0.408426        -3.217522
