19
Iteration:  4591
 C         1.577612        -0.400659         0.167428
 C         0.181396         0.040513        -0.047673
 C        -0.936467         0.487519         0.046228
 C        -2.373247         0.850428        -0.421908
 O        -2.950053         1.677986         0.738196
 C        -3.409725        -0.183709        -0.770731
 C        -4.728016         0.280870        -1.340327
 C        -4.385868        -0.639662        -2.571239
 O        -3.086744        -0.891096        -1.998160
 H         2.204826         0.312561         0.726578
 H         1.760693        -1.413400         0.581383
 H         1.876624        -0.587234        -0.893462
 H        -2.310062         1.613695        -1.227599
 H        -2.113984         2.149250         1.057055
 H        -3.530083        -0.906116         0.122120
 H        -5.507103        -0.053701        -0.683206
 H        -4.652961         1.372246        -1.538276
 H        -5.000806        -1.569079        -2.714354
 H        -4.343398         0.035514        -3.482268
