19
Iteration:  1177
 C         1.334388        -0.478707         0.135339
 C        -0.047514         0.043445         0.040847
 C        -1.115296         0.629148         0.049179
 C        -2.574945         0.586701         0.140619
 O        -3.083942        -0.325427         1.233088
 C        -3.039355        -0.065291        -1.172756
 C        -4.542493        -0.090324        -1.472569
 C        -4.237217         0.432544        -2.830453
 O        -2.848028         0.805735        -2.330083
 H         1.551970        -1.390073        -0.443382
 H         2.101838         0.220288        -0.136111
 H         1.617533        -0.602097         1.228080
 H        -3.035797         1.519735         0.173322
 H        -2.321642        -0.964979         1.215065
 H        -2.538389        -0.969014        -1.536042
 H        -4.999272        -1.049673        -1.462130
 H        -5.048854         0.528418        -0.751552
 H        -4.196724        -0.270986        -3.730919
 H        -4.645882         1.384226        -3.150769
