19
Iteration:  1755charge 0 multiplicity 1
 C         1.550059        -0.160451         0.095825
 C         0.128892         0.104378         0.099058
 C        -1.116538         0.120761         0.211011
 C        -2.495913         0.365652         0.083313
 O        -3.273944        -0.096389         1.184326
 C        -3.164155        -0.176733        -1.200081
 C        -4.673850         0.086229        -1.448703
 C        -4.237137         0.595318        -2.812897
 O        -2.797688         0.506039        -2.422867
 H         2.275770         0.586498         0.491252
 H         1.834764        -1.065382         0.676377
 H         1.802069        -0.432595        -0.940633
 H        -2.530373         1.412626         0.033152
 H        -2.674701         0.078240         1.992104
 H        -3.004663        -1.289192        -1.201803
 H        -5.370471        -0.743984        -1.346277
 H        -5.088831         0.991256        -0.962637
 H        -4.538956        -0.138260        -3.603159
 H        -4.550460         1.586303        -3.122310
