19
Iteration:  3618
 C         1.606605        -0.176240         0.068376
 C         0.205121         0.157866        -0.037872
 C        -1.020032         0.311838        -0.032460
 C        -2.402277         0.762700        -0.217749
 O        -3.235039         1.249266         0.946924
 C        -3.322206        -0.353453        -0.818262
 C        -4.628144         0.253396        -1.251939
 C        -4.260061        -0.184302        -2.656627
 O        -2.976881        -0.737154        -2.233263
 H         1.859438        -1.023607        -0.537594
 H         2.178033         0.636030        -0.241418
 H         1.902183        -0.511000         1.122640
 H        -2.267144         1.613315        -0.902347
 H        -2.930324         1.016258         1.809302
 H        -3.306603        -1.308458        -0.312803
 H        -5.524632        -0.147656        -0.753026
 H        -4.752211         1.363356        -1.104438
 H        -4.898851        -0.984286        -3.249463
 H        -4.114945         0.651622        -3.365180
