19
Iteration:  2381charge 0 multiplicity 1
 C         1.446049        -0.377965         0.175955
 C         0.043528         0.030535        -0.063134
 C        -1.082855         0.451687        -0.162490
 C        -2.522660         0.731646        -0.086265
 O        -2.956733         0.464086         1.338806
 C        -3.283412        -0.381161        -0.999228
 C        -4.743847        -0.136278        -1.415311
 C        -4.151100         0.466224        -2.776448
 O        -2.805907         0.088037        -2.319950
 H         2.050972        -0.075900        -0.729177
 H         2.105768         0.272825         0.947260
 H         1.543723        -1.378050         0.515958
 H        -2.906467         1.701738        -0.293405
 H        -3.923597         0.465350         1.196420
 H        -2.952892        -1.386265        -0.693190
 H        -5.308120        -1.061247        -1.362729
 H        -5.263761         0.655808        -0.858930
 H        -4.263054        -0.213646        -3.693510
 H        -4.429287         1.536323        -2.874760
