19
Iteration:  3114charge 0 multiplicity 1
 C         1.591174        -0.233793         0.393576
 C         0.131305         0.101090         0.306849
 C        -0.972372         0.405364        -0.142149
 C        -2.436501         0.725634        -0.342083
 O        -3.007212         0.905556         0.989829
 C        -3.185952        -0.441554        -1.061308
 C        -4.682470        -0.042139        -1.139229
 C        -4.447547         0.100192        -2.623803
 O        -3.091215        -0.269664        -2.581750
 H         2.061761         0.163804         1.256527
 H         1.903238        -1.253294         0.300567
 H         2.065361         0.197116        -0.473567
 H        -2.478922         1.759033        -0.836503
 H        -2.281024         1.104045         1.589919
 H        -2.862673        -1.401778        -0.785641
 H        -5.406909        -0.794135        -0.812189
 H        -4.810463         0.937537        -0.633442
 H        -5.065433        -0.622995        -3.305684
 H        -4.620282         1.122386        -3.015950
