19
Iteration:  3169charge 0 multiplicity 1
 C         1.494196        -0.254325         0.610259
 C         0.285718         0.166695        -0.055274
 C        -0.884664         0.485867        -0.297313
 C        -2.367004         0.743708        -0.379937
 O        -2.874298         0.762036         0.989850
 C        -3.286876        -0.322196        -1.004572
 C        -4.777494        -0.032273        -1.127902
 C        -4.462268         0.143628        -2.622739
 O        -3.079726        -0.384210        -2.445646
 H         1.090063        -0.760679         1.441205
 H         2.003376        -0.924703         0.003201
 H         2.189655         0.465937         0.978059
 H        -2.381377         1.790080        -0.818867
 H        -3.499008         1.465625         0.964551
 H        -3.089831        -1.258644        -0.590531
 H        -5.381813        -0.891626        -0.843270
 H        -5.180306         0.799802        -0.484316
 H        -5.156469        -0.403151        -3.412443
 H        -4.429119         1.256298        -2.904929
