19
Iteration:  3006
 C         1.480370        -0.340133        -0.033925
 C         0.082957         0.086269         0.166377
 C        -1.097943         0.408318        -0.035293
 C        -2.515509         0.799163        -0.059737
 O        -3.193419         0.826640         1.170063
 C        -3.192628        -0.197729        -0.951634
 C        -4.607901         0.085975        -1.296865
 C        -4.222331        -0.179843        -2.754645
 O        -2.849396        -0.132007        -2.418143
 H         1.902339         0.213914        -0.985979
 H         2.053456         0.015401         0.910621
 H         1.589427        -1.474273        -0.046972
 H        -2.555399         1.800359        -0.466920
 H        -2.494284         0.539323         1.822377
 H        -2.855886        -1.231712        -0.574881
 H        -5.251096        -0.573913        -0.714316
 H        -5.027373         1.068861        -1.186690
 H        -4.433978        -1.153573        -3.168362
 H        -4.463765         0.512147        -3.501853
