19
Iteration:  4729charge 0 multiplicity 1
 C         1.236232        -0.562597        -0.047426
 C        -0.095094         0.022828         0.083013
 C        -1.056608         0.618804        -0.329682
 C        -2.427932         1.091059        -0.371146
 O        -2.676010         1.765924         0.917446
 C        -3.427624        -0.047832        -0.721264
 C        -4.786899         0.089863        -1.535190
 C        -4.121952        -0.787351        -2.485400
 O        -2.826645        -0.839330        -1.807355
 H         1.291622        -1.665659         0.341084
 H         1.615195        -0.622975        -1.126984
 H         1.833499         0.188511         0.487968
 H        -2.383813         1.913076        -1.135266
 H        -2.555606         1.033257         1.575924
 H        -3.603583        -0.650583         0.281429
 H        -5.585322        -0.226420        -0.826092
 H        -4.894936         1.135082        -1.916128
 H        -4.578433        -1.815051        -2.515537
 H        -4.017556        -0.427655        -3.505318
