19
Iteration:  1356charge 0 multiplicity 1
 C         1.599203        -0.156724         0.400240
 C         0.129152        -0.026388         0.254682
 C        -1.029303         0.128986        -0.189028
 C        -2.450563         0.337379        -0.056454
 O        -3.093516        -0.077713         1.229366
 C        -3.189683        -0.323278        -1.335530
 C        -4.652518        -0.029945        -1.468264
 C        -4.421912         0.866084        -2.647765
 O        -2.967683         0.526820        -2.501113
 H         1.996545         0.772710         0.736501
 H         1.850333        -0.869158         1.300344
 H         2.042044        -0.395592        -0.574724
 H        -2.613903         1.370237        -0.058623
 H        -2.673731         0.373285         2.042587
 H        -2.951630        -1.385358        -1.526533
 H        -5.228519        -0.963766        -1.621112
 H        -5.111461         0.616432        -0.704499
 H        -4.775366         0.532883        -3.646461
 H        -4.462579         1.964343        -2.574440
