19
Iteration:  2774charge 0 multiplicity 1
 C         1.461308        -0.221779        -0.200485
 C         0.070181         0.022632         0.032326
 C        -1.080525         0.290982         0.219544
 C        -2.440885         0.692407        -0.039528
 O        -3.136188         0.705877         1.244661
 C        -3.291314        -0.278487        -0.873091
 C        -4.695544         0.226115        -1.493765
 C        -4.008290         0.273101        -2.763090
 O        -2.853019        -0.383827        -2.231656
 H         2.110626         0.638183         0.065239
 H         1.637607        -1.172291         0.295867
 H         1.634915        -0.523261        -1.249173
 H        -2.451395         1.676030        -0.724075
 H        -4.140206         0.636682         1.078514
 H        -3.424825        -1.298756        -0.444081
 H        -5.430134        -0.547422        -1.398686
 H        -5.164369         1.072031        -1.076781
 H        -4.480818        -0.261098        -3.663799
 H        -3.726515         1.323988        -3.124683
