19
Iteration:   273
 C         1.400731        -0.032279        -0.182277
 C        -0.005340         0.153720         0.026622
 C        -1.195705         0.060693         0.302044
 C        -2.660160         0.112617         0.254160
 O        -3.353103        -0.933353         0.926919
 C        -2.997023        -0.042308        -1.234564
 C        -4.509002         0.138273        -1.466183
 C        -4.083497         1.000572        -2.617168
 O        -2.697955         1.034886        -2.111680
 H         2.026203         0.642370         0.427063
 H         1.621129        -1.099273         0.167679
 H         1.681120         0.134516        -1.225286
 H        -3.023668         1.154138         0.419962
 H        -2.563442        -1.583719         1.058601
 H        -2.586295        -1.023873        -1.545068
 H        -5.007129        -0.831976        -1.699615
 H        -5.239644         0.523738        -0.816896
 H        -4.149166         0.452325        -3.565875
 H        -4.438782         2.072772        -2.714874
