19
Iteration:  4994charge 0 multiplicity 1
 C         1.441628        -0.360768         0.610447
 C         0.247594         0.172383        -0.150638
 C        -0.813113         0.522353        -0.610388
 C        -2.302646         0.941833        -0.569564
 O        -2.652436         1.442501         0.684739
 C        -3.382144        -0.115208        -0.778131
 C        -4.783881         0.307954        -1.139762
 C        -4.550959        -0.605370        -2.407168
 O        -3.206589        -0.983976        -2.007181
 H         2.162226         0.281706         1.108427
 H         0.903482        -1.005627         1.358755
 H         2.062118        -1.106710         0.180080
 H        -2.330233         1.725377        -1.343524
 H        -2.734524         2.395396         0.702563
 H        -3.232753        -0.734841         0.026057
 H        -5.620475        -0.093311        -0.555150
 H        -5.055440         1.348719        -1.433465
 H        -5.189496        -1.551881        -2.392183
 H        -4.578334        -0.191433        -3.437046
