19
Iteration:  2026
 C         1.524648        -0.153138         0.124546
 C         0.062760        -0.202984         0.021983
 C        -1.087866         0.108828         0.133734
 C        -2.472593         0.495893        -0.008159
 O        -3.227611         0.377661         1.201360
 C        -3.188556        -0.248520        -1.127350
 C        -4.660586        -0.003414        -1.337770
 C        -4.214113         0.418729        -2.860150
 O        -2.845932         0.386759        -2.339681
 H         2.005997         0.146973        -0.863849
 H         1.725622         0.861633         0.688727
 H         2.023032        -1.080636         0.454518
 H        -2.433371         1.563419        -0.428412
 H        -2.641919         0.237604         1.947267
 H        -2.766248        -1.248331        -1.268090
 H        -5.212128        -0.900701        -1.528919
 H        -5.280626         0.725611        -0.810726
 H        -4.332354        -0.190301        -3.713176
 H        -4.573864         1.432372        -3.090573
