19
Iteration:  1049
 C         1.418326         0.152708        -0.054483
 C         0.046478        -0.122891        -0.078560
 C        -1.170288        -0.112343         0.083734
 C        -2.602842         0.308491         0.170204
 O        -3.281839        -0.032079         1.420968
 C        -3.216324        -0.329798        -1.179307
 C        -4.641896         0.120004        -1.525990
 C        -3.970533         0.865559        -2.741489
 O        -2.668039         0.372621        -2.334471
 H         1.993100         0.139889         0.855362
 H         1.960388        -0.433842        -0.920475
 H         1.506910         1.254617        -0.299521
 H        -2.941890         1.409491         0.179530
 H        -3.137230        -0.924156         1.752472
 H        -3.115876        -1.370861        -1.260851
 H        -5.222741        -0.727172        -1.863169
 H        -5.258019         0.691178        -0.868134
 H        -4.226069         0.685551        -3.766048
 H        -3.806620         1.994409        -2.741202
