19
Iteration:    40charge 0 multiplicity 1
 C         1.453190        -0.065825         0.330514
 C         0.128797         0.070326        -0.090329
 C        -1.089406         0.092856        -0.212348
 C        -2.543448         0.009902         0.056481
 O        -3.000254        -0.989889         0.977473
 C        -3.125019        -0.174972        -1.351683
 C        -4.636711         0.098372        -1.518704
 C        -4.289606         1.380650        -2.330178
 O        -2.890296         0.996879        -2.208855
 H         1.541393        -1.106708         0.852372
 H         2.340363        -0.055720        -0.368938
 H         1.577578         0.778682         1.195693
 H        -2.890871         1.021446         0.435138
 H        -3.912797        -1.230971         0.524259
 H        -2.696917        -1.101227        -1.810802
 H        -5.328894        -0.707429        -1.761385
 H        -5.197548         0.316316        -0.497513
 H        -4.613465         1.570312        -3.386092
 H        -4.424188         2.218488        -1.567090
