19
Iteration:  4738
 C         1.198626        -0.554447        -0.034686
 C        -0.110591         0.010333         0.076689
 C        -1.043593         0.641143        -0.384229
 C        -2.428095         1.134388        -0.356794
 O        -2.663518         1.800773         0.945657
 C        -3.362426        -0.127696        -0.703574
 C        -4.731019         0.160289        -1.479270
 C        -4.163504        -0.830305        -2.557825
 O        -2.839104        -0.858622        -1.804564
 H         1.063199        -1.507087         0.293641
 H         1.565076        -0.443587        -1.046491
 H         2.008282        -0.114356         0.570508
 H        -2.659831         1.904493        -1.105671
 H        -2.607677         1.047875         1.588842
 H        -3.595221        -0.759252         0.135723
 H        -5.645009        -0.342204        -1.130429
 H        -5.017499         1.170247        -1.647746
 H        -4.572863        -1.877410        -2.520577
 H        -3.885927        -0.570479        -3.580402
