19
Iteration:   580
 C         1.612456         0.078415         0.449233
 C         0.187174        -0.005826         0.173141
 C        -1.017904        -0.076804        -0.024669
 C        -2.505249         0.172479        -0.085175
 O        -3.068441        -0.542316         0.987254
 C        -3.256090        -0.222086        -1.356543
 C        -4.816947         0.103620        -1.489675
 C        -4.389485         1.062212        -2.562834
 O        -2.873333         0.720777        -2.377025
 H         2.050027         1.071629         0.433279
 H         1.702602        -0.236841         1.571142
 H         2.266908        -0.574481        -0.121541
 H        -2.375269         1.301069        -0.094549
 H        -2.551453        -0.444702         1.737547
 H        -3.011132        -1.251743        -1.635211
 H        -5.402397        -0.738482        -1.955857
 H        -5.367388         0.408225        -0.558400
 H        -4.688415         0.955128        -3.574479
 H        -4.416677         2.058024        -2.290391
