19
Iteration:  4408charge 0 multiplicity 1
 C         1.601733        -0.335098         0.373371
 C         0.194686        -0.035106         0.166126
 C        -0.956744         0.402051        -0.013131
 C        -2.251163         0.915864        -0.526688
 O        -2.802342         1.656615         0.608969
 C        -3.232959        -0.229401        -0.879900
 C        -4.833935        -0.046233        -1.056078
 C        -4.564300        -0.408318        -2.518682
 O        -3.217457        -0.784655        -2.281104
 H         2.044909        -1.012699        -0.309174
 H         2.094344         0.679733         0.197173
 H         1.854952        -0.330633         1.508334
 H        -2.102997         1.520290        -1.468187
 H        -2.478892         2.511125         0.470618
 H        -3.039351        -1.015845        -0.239411
 H        -5.410604        -0.792213        -0.495626
 H        -5.374281         0.920814        -1.052261
 H        -5.226574        -1.218621        -2.640467
 H        -4.624480         0.385552        -3.238821
