19
Iteration:   650
 C         1.518990        -0.260763         0.326676
 C         0.106949        -0.001693         0.350393
 C        -1.022485         0.363706         0.127969
 C        -2.485827         0.456549        -0.054555
 O        -3.076349        -0.414423         0.942791
 C        -3.051505        -0.160114        -1.299189
 C        -4.621601        -0.175990        -1.462281
 C        -4.490074         0.943846        -2.516221
 O        -2.953575         0.729163        -2.512865
 H         2.040231         0.126327         1.234070
 H         1.720511        -1.280347         0.318797
 H         2.051531         0.072909        -0.581710
 H        -2.950029         1.455547         0.119016
 H        -2.853425        -1.337194         0.799490
 H        -2.507877        -1.079711        -1.673750
 H        -4.973192        -1.131029        -1.831991
 H        -5.213851         0.148668        -0.592330
 H        -4.734141         0.753964        -3.586434
 H        -4.647851         2.017600        -2.232381
