19
Iteration:  3846charge 0 multiplicity 1
 C         1.470647        -0.341670         0.340680
 C         0.130918        -0.057720        -0.036369
 C        -1.027864         0.235085         0.151885
 C        -2.253185         0.866387        -0.332328
 O        -2.894294         1.607137         0.683666
 C        -3.155589        -0.246035        -0.977447
 C        -4.696606        -0.076901        -1.025722
 C        -4.488593        -0.548777        -2.505167
 O        -3.073499        -0.241604        -2.412040
 H         1.738267        -0.077764         1.354261
 H         1.796474        -1.348225        -0.025789
 H         2.148920         0.354212        -0.293381
 H        -1.999417         1.531336        -1.223748
 H        -3.776756         1.230439         0.991178
 H        -2.975526        -1.209445        -0.542968
 H        -5.411277        -0.781396        -0.592607
 H        -5.099360         0.941563        -0.940711
 H        -4.758186        -1.592093        -2.626292
 H        -5.018694        -0.071482        -3.315314
