19
Iteration:  3690
 C         1.352830        -0.277852         0.526229
 C         0.151077         0.237707        -0.049245
 C        -0.990365         0.439799        -0.453575
 C        -2.367835         0.865888        -0.402544
 O        -2.757938         1.275067         0.993626
 C        -3.226322        -0.360995        -0.908109
 C        -4.763499        -0.080040        -1.117176
 C        -4.427897        -0.177784        -2.586739
 O        -3.066981        -0.589430        -2.380219
 H         2.240999        -0.165624        -0.224473
 H         1.718897         0.475623         1.340772
 H         1.350770        -1.319654         0.849535
 H        -2.495886         1.639076        -1.178065
 H        -2.250094         0.763758         1.609452
 H        -3.155762        -1.255463        -0.339658
 H        -5.471380        -0.766772        -0.625242
 H        -5.008432         0.848299        -0.602526
 H        -5.003340        -0.916398        -3.054108
 H        -4.549473         0.738777        -3.186878
