19
Iteration:  4864
 C         1.377536        -0.509542        -0.081748
 C         0.022630        -0.112769         0.183819
 C        -1.037058         0.491347         0.025165
 C        -2.373778         0.997888        -0.412369
 O        -2.805080         1.960828         0.580789
 C        -3.297635        -0.228270        -0.704509
 C        -4.746680         0.095591        -1.216319
 C        -4.284840        -0.634989        -2.446978
 O        -2.932465        -0.853372        -1.987874
 H         1.819409        -0.502884        -1.070997
 H         2.003886         0.219427         0.382216
 H         1.501550        -1.480895         0.274854
 H        -2.082616         1.540931        -1.327779
 H        -3.791465         2.198036         0.477116
 H        -3.236283        -1.096516         0.031515
 H        -5.360482        -0.472624        -0.535949
 H        -5.092917         1.156532        -1.301150
 H        -4.744336        -1.582929        -2.661380
 H        -4.219267        -0.109468        -3.384602
