19
Iteration:  2925
 C         1.309137        -0.366583        -0.109590
 C        -0.037156         0.131952        -0.143002
 C        -1.164610         0.550532        -0.119613
 C        -2.610441         0.835724         0.053428
 O        -2.993493         0.612949         1.396753
 C        -3.287843        -0.213473        -0.905231
 C        -4.630315         0.267550        -1.442705
 C        -4.058311        -0.178747        -2.862535
 O        -2.611393        -0.211163        -2.184815
 H         1.345399        -1.372489        -0.464011
 H         2.008685         0.198343        -0.653894
 H         1.584924        -0.350878         1.039093
 H        -2.754770         1.978115        -0.107305
 H        -3.953904         0.255452         1.348694
 H        -3.225362        -1.194081        -0.379502
 H        -5.557844        -0.225496        -1.011773
 H        -4.594330         1.428129        -1.418536
 H        -4.406540        -1.188628        -3.103817
 H        -4.089700         0.487976        -3.748914
