19
Iteration:  4106charge 0 multiplicity 1
 C         1.449479        -0.362788        -0.252024
 C         0.041900        -0.071319         0.104561
 C        -1.052790         0.510792         0.046057
 C        -2.376557         0.866909        -0.296376
 O        -3.116308         1.564600         0.720873
 C        -3.370762        -0.232818        -0.695632
 C        -4.604545         0.352690        -1.319837
 C        -3.974167        -0.280531        -2.656655
 O        -3.043290        -1.075135        -1.810958
 H         2.001780         0.429936        -0.925949
 H         2.062004        -0.492609         0.722315
 H         1.510471        -1.323834        -0.716414
 H        -2.076810         1.628692        -1.126932
 H        -3.716015         0.953675         1.099578
 H        -3.420725        -0.715189         0.337635
 H        -5.403657        -0.232403        -0.864446
 H        -4.870832         1.416002        -1.281757
 H        -4.472593        -0.813232        -3.455499
 H        -3.507408         0.681397        -2.967961
