19
Iteration:  4629
 C         1.493324        -0.506345        -0.057050
 C         0.215638         0.155127         0.265775
 C        -0.971185         0.461475        -0.061395
 C        -2.315530         0.992585        -0.435009
 O        -3.084593         1.540971         0.768769
 C        -3.317309        -0.073188        -0.844050
 C        -4.608188         0.371495        -1.359710
 C        -4.379800        -0.695410        -2.520576
 O        -3.068058        -0.976969        -1.901581
 H         2.365795        -0.367020         0.652666
 H         1.304246        -1.609160        -0.196908
 H         1.857593         0.142452        -0.892277
 H        -2.122691         1.743399        -1.252838
 H        -2.604804         2.323874         0.953902
 H        -3.479782        -0.569301         0.202537
 H        -5.558775         0.161818        -0.800677
 H        -4.626785         1.419030        -1.720332
 H        -4.943006        -1.621391        -2.591999
 H        -4.248171        -0.354538        -3.545089
