19
Iteration:  1391
 C         1.515632        -0.162659         0.389638
 C         0.053417         0.018035         0.052795
 C        -1.114853         0.292741        -0.108417
 C        -2.573324         0.512215        -0.031945
 O        -2.930104        -0.198286         1.152165
 C        -3.264332        -0.272899        -1.200739
 C        -4.728515         0.037771        -1.515999
 C        -4.226397         0.871464        -2.626902
 O        -2.874203         0.310164        -2.418265
 H         1.624187         0.561978         1.233857
 H         1.744918        -1.273704         0.640179
 H         2.186791        -0.015152        -0.404550
 H        -2.971670         1.443159        -0.191171
 H        -2.053078        -0.204478         1.694188
 H        -3.147228        -1.341858        -0.916258
 H        -5.234199        -0.850283        -1.950474
 H        -5.442073         0.396512        -0.706329
 H        -4.696278         0.687189        -3.671745
 H        -4.171482         2.000967        -2.450823
