19
Iteration:   607
 C         1.596785        -0.043702         0.459891
 C         0.186059         0.031147         0.127646
 C        -1.016113         0.134091         0.024029
 C        -2.503940         0.166089        -0.024758
 O        -3.246780        -0.489883         1.014041
 C        -3.076940        -0.202175        -1.448554
 C        -4.582974         0.026038        -1.361484
 C        -4.433501         1.039771        -2.532928
 O        -2.977450         0.721101        -2.527170
 H         1.946923         0.924626         0.862427
 H         1.726464        -0.827607         1.161814
 H         2.279683        -0.467592        -0.318930
 H        -2.524324         1.215978         0.038031
 H        -2.750888        -0.987236         1.604843
 H        -2.733450        -1.211501        -1.784873
 H        -5.158768        -0.826139        -1.663010
 H        -4.836487         0.390069        -0.367446
 H        -4.950547         0.892765        -3.541783
 H        -4.543503         2.139355        -2.194013
