19
Iteration:  2941charge 0 multiplicity 1
 C         1.324918        -0.426328        -0.056985
 C         0.015308         0.258064        -0.119083
 C        -1.151891         0.558998        -0.145978
 C        -2.563302         0.804666         0.010408
 O        -3.068794         0.564360         1.412074
 C        -3.184974        -0.111734        -0.890985
 C        -4.620717         0.271580        -1.460470
 C        -4.001360        -0.204117        -2.738991
 O        -2.737164        -0.238879        -2.298293
 H         1.368276        -1.370294        -0.745495
 H         2.142329         0.340286        -0.342473
 H         1.624733        -0.912798         0.892946
 H        -2.849243         1.791807        -0.258593
 H        -4.067527         0.744125         1.368650
 H        -3.293928        -1.104298        -0.393786
 H        -5.426270        -0.282548        -1.017877
 H        -4.919539         1.264205        -1.311240
 H        -4.343031        -1.199238        -3.059093
 H        -4.232840         0.476745        -3.590227
