19
Iteration:   635charge 0 multiplicity 1
 C         1.558695        -0.202633         0.394029
 C         0.104622         0.028643         0.265304
 C        -1.076342         0.237078         0.112529
 C        -2.541713         0.413857        -0.065201
 O        -3.148681        -0.430831         0.894014
 C        -3.065624        -0.147435        -1.411258
 C        -4.575291        -0.113612        -1.322083
 C        -4.349876         0.940186        -2.484137
 O        -2.993433         0.724669        -2.526973
 H         2.006968         0.564931         1.093657
 H         1.907882        -1.303370         0.614811
 H         2.005233        -0.054806        -0.566514
 H        -2.665336         1.554595         0.057092
 H        -2.761759        -1.292799         0.738422
 H        -2.560357        -1.111833        -1.583104
 H        -5.110176        -1.024071        -1.693933
 H        -4.861999         0.175318        -0.307971
 H        -4.838081         0.784882        -3.417222
 H        -4.601498         1.898348        -2.159570
