19
Iteration:  3839charge 0 multiplicity 1
 C         1.533559        -0.361510         0.347154
 C         0.159658        -0.018750        -0.053830
 C        -1.019890         0.299389         0.177512
 C        -2.294883         0.807887        -0.339465
 O        -2.903719         1.571897         0.639079
 C        -3.163051        -0.260775        -0.959641
 C        -4.708968        -0.074802        -1.065862
 C        -4.572251        -0.506511        -2.547654
 O        -3.058366        -0.230036        -2.364563
 H         1.601224        -0.011915         1.392599
 H         1.753234        -1.410976         0.225052
 H         2.280143         0.174275        -0.298967
 H        -1.900957         1.523202        -1.013311
 H        -3.736760         1.106834         0.722638
 H        -2.740266        -1.262534        -0.551805
 H        -5.160761        -0.762929        -0.324038
 H        -5.027772         0.964616        -0.949518
 H        -4.788180        -1.623637        -2.492899
 H        -5.183227         0.005834        -3.287997
