19
Iteration:  1592
 C         1.384966         0.063816        -0.436945
 C         0.009284        -0.008364         0.041417
 C        -1.166683         0.125358         0.375178
 C        -2.621155         0.417112         0.284756
 O        -3.424362        -0.266188         1.326129
 C        -3.177812        -0.128120        -1.077574
 C        -4.645229         0.315182        -1.544104
 C        -3.884154         0.548159        -2.872595
 O        -2.548409         0.241369        -2.287947
 H         1.531706        -0.422118        -1.418252
 H         1.727931         1.021849        -0.556303
 H         1.972482        -0.458983         0.395247
 H        -2.898761         1.599551         0.373204
 H        -3.437726         0.338658         2.077720
 H        -3.219532        -1.182222        -0.727634
 H        -5.362501        -0.495495        -1.390902
 H        -5.053155         1.222584        -1.094426
 H        -3.890895        -0.053628        -3.801854
 H        -3.686727         1.569332        -3.166141
