19
Iteration:  1058charge 0 multiplicity 1
 C         1.440562         0.155340        -0.061644
 C         0.003105        -0.169182        -0.087038
 C        -1.196129        -0.070290         0.099590
 C        -2.630068         0.303179         0.139258
 O        -3.298354        -0.028028         1.334988
 C        -3.205376        -0.272964        -1.118345
 C        -4.604645         0.098245        -1.505260
 C        -4.004962         0.841147        -2.737501
 O        -2.633815         0.408727        -2.302291
 H         1.874971        -0.223893         0.795190
 H         1.974291        -0.341403        -0.908323
 H         1.511043         1.298849        -0.237847
 H        -2.593256         1.455081         0.171641
 H        -3.027207        -0.934054         1.500910
 H        -3.003600        -1.356252        -1.089355
 H        -5.097865        -0.757957        -1.912662
 H        -5.137022         0.598813        -0.721583
 H        -4.259651         0.346306        -3.673676
 H        -4.050706         1.951578        -2.657131
