19
Iteration:  4349
 C         1.429553        -0.402144         0.269999
 C         0.134163         0.030689         0.048888
 C        -1.007920         0.424029        -0.031838
 C        -2.309467         0.802446        -0.435358
 O        -2.890215         1.735215         0.512879
 C        -3.248798        -0.322077        -0.856930
 C        -4.700741         0.000222        -0.948369
 C        -4.486974        -0.561888        -2.471787
 O        -3.019465        -0.489932        -2.266016
 H         1.587200        -1.416227         0.754716
 H         2.078434        -0.239881        -0.614804
 H         1.819502         0.152953         1.149258
 H        -2.228788         1.520267        -1.243810
 H        -2.452078         1.659780         1.399299
 H        -3.180990        -1.349058        -0.319989
 H        -5.400934        -0.457467        -0.240838
 H        -5.005618         1.022852        -1.116152
 H        -4.762492        -1.627735        -2.662880
 H        -4.707537        -0.058637        -3.439381
