19
Iteration:  1506
 C         1.448874         0.094021        -0.179125
 C         0.021162        -0.023859        -0.020271
 C        -1.161618         0.045531         0.293383
 C        -2.598520         0.362215         0.162637
 O        -3.331167        -0.087555         1.255042
 C        -3.250615        -0.251604        -1.035350
 C        -4.664211         0.198551        -1.574251
 C        -3.928714         0.727790        -2.747601
 O        -2.647318         0.201852        -2.334651
 H         1.953436        -0.826906         0.097748
 H         1.556964         0.329410        -1.246917
 H         1.969237         1.038824         0.267445
 H        -2.621274         1.425821         0.136386
 H        -2.566758        -0.273080         1.910269
 H        -3.470725        -1.325334        -0.980509
 H        -5.482782        -0.512931        -1.683018
 H        -5.036874         0.977533        -0.923174
 H        -4.222908         0.340561        -3.742576
 H        -3.913240         1.908238        -2.815890
