19
Iteration:  1220charge 0 multiplicity 1
 C         1.378681        -0.474189         0.326998
 C         0.141299         0.110528        -0.046643
 C        -1.022690         0.396557        -0.086777
 C        -2.519255         0.536706         0.062365
 O        -3.040520        -0.193007         1.328042
 C        -3.101722        -0.074001        -1.225957
 C        -4.657232        -0.209075        -1.538879
 C        -4.281042         0.495605        -2.866145
 O        -2.997318         0.903901        -2.289025
 H         2.063443        -0.929347        -0.522343
 H         2.086302         0.255108         0.705230
 H         1.260032        -1.230008         1.205251
 H        -2.783355         1.535068         0.289631
 H        -2.620644        -1.032089         1.430752
 H        -2.550746        -1.007758        -1.324047
 H        -5.173523        -1.145513        -1.562334
 H        -5.171392         0.571684        -0.950414
 H        -3.980168        -0.281160        -3.632902
 H        -4.876870         1.291201        -3.231553
