19
Iteration:  3917charge 0 multiplicity 1
 C         1.419892        -0.517405         0.229776
 C         0.186056         0.185930         0.065755
 C        -0.999682         0.485665        -0.129425
 C        -2.418952         0.945228        -0.349413
 O        -2.964538         1.416364         0.901590
 C        -3.225348        -0.160262        -0.860443
 C        -4.742343         0.069824        -1.274184
 C        -4.395375        -0.629053        -2.542925
 O        -2.965876        -0.497287        -2.282022
 H         1.299061        -1.454770         0.850696
 H         1.753229        -0.683552        -0.807055
 H         2.242274         0.036870         0.719679
 H        -2.330224         1.776494        -1.018863
 H        -2.230417         2.068380         1.198091
 H        -2.979159        -1.077018        -0.224589
 H        -5.263762        -0.353334        -0.414088
 H        -5.040317         1.127026        -1.255057
 H        -4.804550        -1.672699        -2.598424
 H        -4.742306        -0.252071        -3.512057
