19
Iteration:   571charge 0 multiplicity 1
 C         1.571550         0.108835         0.460270
 C         0.145785        -0.044711         0.219214
 C        -1.024988        -0.085880        -0.130486
 C        -2.418726         0.122932        -0.056689
 O        -3.026987        -0.548963         0.989926
 C        -3.327965        -0.189526        -1.310905
 C        -4.786029         0.113512        -1.515938
 C        -4.322626         1.108041        -2.598432
 O        -2.912431         0.684827        -2.332233
 H         1.980589         1.122098         0.156038
 H         1.775164         0.033258         1.473659
 H         2.079464        -0.563639        -0.087023
 H        -2.665216         1.136619         0.090132
 H        -2.556455        -0.288682         1.734600
 H        -3.079860        -1.204756        -1.632546
 H        -5.261691        -0.797672        -1.937101
 H        -5.373644         0.422485        -0.652165
 H        -4.553164         0.953721        -3.631362
 H        -4.450396         2.158015        -2.321844
