19
Iteration:  3530
 C         1.451082        -0.260535        -0.331022
 C        -0.021657         0.005427        -0.082394
 C        -1.139089         0.469498         0.137064
 C        -2.500247         0.899600         0.005558
 O        -3.072193         1.034706         1.278163
 C        -3.432099        -0.156666        -0.796401
 C        -4.717448         0.268514        -1.686868
 C        -3.899541        -0.361861        -2.788717
 O        -2.788714        -0.630742        -1.926170
 H         1.878863        -1.071253         0.203766
 H         1.602062        -0.626282        -1.322358
 H         1.930666         0.805352        -0.332935
 H        -2.598685         1.856283        -0.622183
 H        -2.634179         1.762253         1.693465
 H        -3.546924        -0.979351        -0.175077
 H        -5.728701        -0.160372        -1.428152
 H        -4.877942         1.377373        -1.702235
 H        -4.389159        -1.279268        -3.183892
 H        -3.843503         0.239181        -3.692261
