19
Iteration:  2290charge 0 multiplicity 1
 C         1.543846        -0.135603        -0.298160
 C         0.121178         0.071987         0.151665
 C        -1.101129         0.133714         0.224691
 C        -2.527148         0.549194         0.070664
 O        -3.377759         0.335179         1.229932
 C        -3.239235        -0.296986        -0.977144
 C        -4.628531         0.286388        -1.357316
 C        -4.002779         0.450853        -2.769755
 O        -2.751485        -0.132331        -2.333696
 H         1.639375        -1.221177        -0.613022
 H         1.943365         0.613538        -1.216302
 H         2.225532         0.193842         0.598652
 H        -2.706901         1.551131        -0.302684
 H        -4.139033         0.815089         0.967095
 H        -3.318869        -1.392856        -0.807280
 H        -5.525383        -0.321767        -1.404150
 H        -4.814851         1.262086        -0.947203
 H        -4.434757        -0.243312        -3.612929
 H        -3.883296         1.529313        -2.989462
