19
Iteration:    88charge 0 multiplicity 1
 C         1.588532        -0.051552         0.457808
 C         0.173116        -0.097891         0.260300
 C        -0.986533         0.110968        -0.035800
 C        -2.464985         0.082097        -0.133838
 O        -2.919532        -0.991676         0.870264
 C        -3.261496        -0.214644        -1.471867
 C        -4.765304         0.140878        -1.505282
 C        -4.442961         1.431065        -2.232328
 O        -2.991339         0.935484        -2.472267
 H         2.117331        -0.935716        -0.056112
 H         2.009877         0.824399        -0.043805
 H         1.886805        -0.070588         1.400547
 H        -2.784309         1.047097         0.198201
 H        -2.911240        -0.595483         1.724213
 H        -2.987945        -1.201057        -1.863153
 H        -5.591828        -0.477620        -1.885891
 H        -5.136738         0.291528        -0.496054
 H        -4.782810         1.555941        -3.238724
 H        -4.417627         2.391388        -1.665251
