19
Iteration:  3096
 C         1.535584        -0.179594         0.309244
 C         0.156358         0.090678         0.270435
 C        -0.999180         0.334759        -0.004478
 C        -2.324744         0.685266        -0.325697
 O        -2.955705         0.973731         0.967129
 C        -3.218741        -0.331989        -1.064472
 C        -4.768373        -0.095569        -1.161753
 C        -4.509801         0.073973        -2.724646
 O        -2.986790        -0.205800        -2.442334
 H         2.118516         0.473606         1.103439
 H         1.707868        -1.326501         0.548838
 H         1.974922        -0.134119        -0.696921
 H        -2.368158         1.506428        -1.024549
 H        -2.551617         0.310015         1.533605
 H        -3.018651        -1.449198        -0.781110
 H        -5.394786        -0.958205        -0.898285
 H        -5.257871         0.788956        -0.717029
 H        -4.931089        -0.676735        -3.338652
 H        -4.741867         1.025704        -3.187145
