19
Iteration:  2181charge 0 multiplicity 1
 C         1.364010        -0.191717        -0.196537
 C        -0.042265         0.115666        -0.057097
 C        -1.250946         0.343734        -0.086267
 C        -2.634869         0.550393         0.212140
 O        -3.051640        -0.025985         1.529485
 C        -3.410269        -0.144909        -0.902257
 C        -4.650022         0.443470        -1.634198
 C        -3.812305         0.301140        -2.953309
 O        -2.632679         0.013920        -2.199515
 H         1.892460         0.035346         0.698880
 H         1.351174        -1.190228        -0.597652
 H         1.929397         0.272027        -0.926299
 H        -2.959778         1.662842         0.158001
 H        -3.124052         0.796896         2.115560
 H        -3.622363        -1.223570        -0.729704
 H        -5.514600        -0.227428        -1.540752
 H        -4.956514         1.429719        -1.315487
 H        -4.059743        -0.742055        -3.446877
 H        -3.829432         1.115035        -3.737318
