19
Iteration:  1235charge 0 multiplicity 1
 C         1.570508        -0.449529         0.348883
 C         0.105631         0.015248         0.132671
 C        -1.023357         0.425016        -0.098611
 C        -2.484244         0.447680         0.115452
 O        -3.021311        -0.113688         1.250151
 C        -3.191793        -0.102000        -1.248689
 C        -4.701165        -0.176114        -1.518433
 C        -4.285559         0.496366        -2.875915
 O        -3.027181         0.913295        -2.323315
 H         1.965626        -0.679903        -0.561835
 H         2.110363         0.418900         0.889960
 H         1.444937        -1.452368         0.782291
 H        -2.820157         1.498889         0.018062
 H        -2.617390        -0.980516         1.361032
 H        -2.632446        -1.018130        -1.657493
 H        -5.050746        -1.223726        -1.587644
 H        -5.330977         0.453628        -0.881287
 H        -4.332825        -0.311088        -3.767409
 H        -4.933623         1.408360        -3.153148
