19
Iteration:  4397
 C         1.619559        -0.292541         0.358027
 C         0.186429        -0.008255         0.192041
 C        -0.933874         0.341684        -0.029821
 C        -2.236047         0.871033        -0.430654
 O        -2.794208         1.716148         0.561226
 C        -3.319412        -0.206721        -0.863814
 C        -4.887013        -0.085069        -1.087912
 C        -4.608711        -0.480876        -2.493419
 O        -3.143159        -0.708391        -2.298565
 H         1.859310        -1.246666        -0.121185
 H         2.243180         0.441656        -0.184647
 H         1.977691        -0.562329         1.437128
 H        -1.982254         1.586036        -1.249860
 H        -2.339112         2.590549         0.524567
 H        -3.178173        -0.956079        -0.161427
 H        -5.436150        -0.884389        -0.576785
 H        -5.354137         0.899736        -0.882488
 H        -4.976939        -1.267858        -3.066951
 H        -4.759667         0.374870        -3.135989
