19
Iteration:  2969charge 0 multiplicity 1
 C         1.437429        -0.477819        -0.104381
 C         0.113161         0.275199         0.019701
 C        -1.030810         0.653418         0.168321
 C        -2.510921         0.827587         0.016223
 O        -3.066402         0.587956         1.250557
 C        -3.233446        -0.161559        -0.926704
 C        -4.700005         0.167763        -1.452328
 C        -4.166861        -0.249919        -2.870211
 O        -2.840885        -0.201365        -2.329313
 H         1.773002        -0.890395        -1.013304
 H         2.166164         0.159597         0.251289
 H         1.443851        -1.361765         0.594000
 H        -2.816473         1.867016        -0.427328
 H        -3.453662         1.408476         1.722084
 H        -3.316345        -1.121980        -0.412687
 H        -5.498418        -0.451709        -0.924618
 H        -4.953490         1.276698        -1.282209
 H        -4.454903        -1.255406        -3.292808
 H        -4.357502         0.535182        -3.626651
