19
Iteration:  4166
 C         1.451688        -0.417647        -0.027688
 C         0.078863         0.128672        -0.116719
 C        -1.113531         0.448691         0.006739
 C        -2.423219         0.870452        -0.319418
 O        -2.944903         1.540494         0.931510
 C        -3.433257        -0.279152        -0.663715
 C        -4.688316         0.292749        -1.470289
 C        -4.115363        -0.423073        -2.608962
 O        -2.949296        -0.880236        -1.948504
 H         2.238415         0.206527         0.232963
 H         1.292624        -1.089184         0.774758
 H         1.675313        -1.027936        -0.947566
 H        -2.526818         1.600045        -1.128424
 H        -2.159880         2.028090         1.319030
 H        -3.413267        -1.111870         0.123313
 H        -5.665780        -0.134854        -1.209985
 H        -4.698582         1.390136        -1.397562
 H        -4.684016        -1.289408        -3.030305
 H        -3.926090         0.183125        -3.525016
