19
Iteration:  3651
 C         1.562955        -0.233597         0.253475
 C         0.171129         0.146699         0.159030
 C        -0.919477         0.566816        -0.135443
 C        -2.286735         0.878653        -0.409045
 O        -2.892365         1.193610         0.927755
 C        -3.369653        -0.292192        -0.878132
 C        -4.806774         0.061351        -1.180214
 C        -4.374015        -0.173548        -2.646112
 O        -3.116067        -0.748552        -2.297342
 H         1.757081        -0.508239        -0.727487
 H         2.164120         0.589950         0.432289
 H         1.736890        -0.902193         1.168195
 H        -2.377898         1.853330        -0.920348
 H        -3.003105         0.258139         1.280570
 H        -3.164510        -1.235820        -0.175653
 H        -5.519281        -0.736513        -0.948076
 H        -5.216232         1.106212        -1.087277
 H        -4.880959        -1.003376        -3.355125
 H        -4.179200         0.775242        -3.191864
