19
Iteration:   922charge 0 multiplicity 1
 C         1.430619         0.052677         0.025557
 C         0.002527         0.231039         0.098703
 C        -1.207404         0.253503        -0.108396
 C        -2.660098         0.317195         0.185576
 O        -3.048475        -0.446332         1.333778
 C        -3.383923        -0.321668        -1.109248
 C        -4.689411         0.373518        -1.576745
 C        -3.851102         0.987050        -2.739271
 O        -2.803234         0.064443        -2.379981
 H         2.059515         0.931258        -0.382692
 H         1.896698        -0.085612         0.972550
 H         1.640105        -0.919756        -0.402689
 H        -2.731310         1.385046         0.409401
 H        -2.290102        -1.109455         1.593410
 H        -3.403891        -1.476858        -0.940925
 H        -5.447230        -0.378234        -1.932958
 H        -5.299036         1.100175        -0.956640
 H        -4.097707         0.664887        -3.797063
 H        -3.491387         2.020934        -2.604263
