19
Iteration:   308
 C         1.334627         0.081846        -0.362329
 C         0.034714        -0.056054         0.209043
 C        -1.133949         0.130223         0.494721
 C        -2.634842         0.147746         0.307965
 O        -3.317803        -0.917443         1.010288
 C        -3.006304        -0.019919        -1.179392
 C        -4.556544         0.107915        -1.574918
 C        -4.037188         0.993531        -2.721522
 O        -2.676880         0.966197        -2.126050
 H         2.226080         0.325209         0.407277
 H         1.693417        -0.815510        -0.932843
 H         1.304273         0.804953        -1.123618
 H        -3.189715         1.121098         0.573905
 H        -3.787806        -1.573582         0.345618
 H        -2.829870        -1.024099        -1.587784
 H        -4.862716        -0.841966        -1.968859
 H        -5.166434         0.647482        -0.999549
 H        -4.202186         0.653214        -3.721533
 H        -4.361443         2.053495        -2.665695
