19
Iteration:  2824charge 0 multiplicity 1
 C         1.433460        -0.257192        -0.304274
 C         0.024547         0.038759        -0.010329
 C        -1.134277         0.378283         0.172678
 C        -2.540196         0.645521         0.092376
 O        -3.321975         0.689682         1.276413
 C        -3.287783        -0.337352        -0.913739
 C        -4.543963         0.329364        -1.345929
 C        -3.989823         0.151768        -2.897068
 O        -2.706532        -0.415497        -2.234996
 H         1.932681        -0.055475         0.600030
 H         1.609167        -1.196511        -0.858432
 H         1.899754         0.573121        -0.925498
 H        -2.534264         1.552135        -0.459853
 H        -3.271253         1.578821         1.661229
 H        -3.390011        -1.359489        -0.539860
 H        -5.609487         0.011462        -1.138256
 H        -4.501684         1.427127        -0.941144
 H        -4.405667        -0.625896        -3.499034
 H        -3.909383         1.063720        -3.540883
