19
Iteration:  3842charge 0 multiplicity 1
 C         1.504887        -0.349435         0.343698
 C         0.151484        -0.037099        -0.053537
 C        -1.028983         0.270987         0.172076
 C        -2.280906         0.833934        -0.330989
 O        -2.896028         1.585063         0.655942
 C        -3.156657        -0.254983        -0.971594
 C        -4.699949        -0.071720        -1.048544
 C        -4.529595        -0.529339        -2.530328
 O        -3.062631        -0.232932        -2.378435
 H         1.664587         0.002325         1.406049
 H         1.780861        -1.387199         0.060587
 H         2.154074         0.194681        -0.247923
 H        -1.909576         1.558394        -1.129559
 H        -3.736217         1.166045         0.836162
 H        -2.834734        -1.248369        -0.537542
 H        -5.297627        -0.823001        -0.436202
 H        -5.070330         0.965951        -0.951756
 H        -4.816136        -1.615073        -2.527702
 H        -5.203701        -0.004908        -3.366762
