19
Iteration:  1475charge 0 multiplicity 1
 C         1.565771        -0.052437        -0.052567
 C         0.087273         0.127954         0.128864
 C        -1.135970         0.325562         0.063487
 C        -2.655699         0.420567         0.166360
 O        -3.303630        -0.186731         1.306466
 C        -3.239118        -0.259517        -1.097811
 C        -4.653000         0.171832        -1.501606
 C        -3.952855         0.838305        -2.748674
 O        -2.776260         0.083607        -2.438073
 H         2.054342        -0.813966         0.502523
 H         1.685572        -0.613848        -1.083549
 H         2.141731         0.920867        -0.074693
 H        -2.934635         1.641312         0.191985
 H        -2.838722        -1.002620         1.415988
 H        -3.342773        -1.340626        -0.908402
 H        -5.425952        -0.570811        -1.739051
 H        -5.074456         0.852295        -0.735177
 H        -4.418834         0.506323        -3.643283
 H        -3.859465         1.954150        -2.779837
