19
Iteration:   547
 C         1.538313         0.171623         0.389732
 C         0.058039        -0.078438         0.226128
 C        -1.076162        -0.048753        -0.249045
 C        -2.529716         0.156766         0.012329
 O        -2.991848        -0.686531         1.148223
 C        -3.295354        -0.255899        -1.349863
 C        -4.786114         0.213179        -1.524141
 C        -4.265750         1.101578        -2.595293
 O        -2.798479         0.681840        -2.395832
 H         1.889873         0.953180        -0.241643
 H         1.624955         0.590520         1.458562
 H         2.160227        -0.711024         0.265919
 H        -2.834818         1.239550         0.182907
 H        -2.504643        -0.317310         1.916151
 H        -2.932108        -1.240284        -1.616983
 H        -5.539076        -0.512995        -1.938047
 H        -5.131957         0.621459        -0.521166
 H        -4.580155         0.952384        -3.596126
 H        -4.315396         2.115456        -2.347277
