19
Iteration:   854
 C         1.497283         0.049756         0.021858
 C         0.040207        -0.025067        -0.122569
 C        -1.157968         0.082884         0.120129
 C        -2.603851         0.261286         0.234197
 O        -3.286168        -0.383261         1.371033
 C        -3.185801        -0.107213        -1.186658
 C        -4.658120         0.270843        -1.459811
 C        -4.037471         0.709537        -2.846176
 O        -2.684228         0.530536        -2.414908
 H         2.057311         0.035419        -0.935983
 H         1.838669         1.009747         0.550523
 H         1.717736        -0.708204         0.622760
 H        -3.032151         1.230515         0.428499
 H        -2.732762        -1.074218         1.713996
 H        -3.086187        -1.257018        -1.376661
 H        -5.435076        -0.480677        -1.474291
 H        -5.004427         1.009463        -0.715207
 H        -4.242895         0.009609        -3.701029
 H        -4.376233         1.718956        -3.010251
