19
Iteration:  1266
 C         1.566462        -0.282312         0.326662
 C         0.109396        -0.116356         0.323603
 C        -1.056517         0.162721         0.113072
 C        -2.390139         0.517474         0.035511
 O        -3.045670        -0.065850         1.123432
 C        -3.096881        -0.125038        -1.351317
 C        -4.675691        -0.147811        -1.429971
 C        -4.419903         0.589013        -2.825619
 O        -3.070490         0.832553        -2.484799
 H         1.946742         0.100437        -0.612525
 H         2.184351         0.287772         1.152450
 H         1.793875        -1.432038         0.372528
 H        -2.502030         1.562074        -0.049674
 H        -2.545194        -0.892010         1.383201
 H        -2.530801        -1.021147        -1.620008
 H        -5.180478        -1.102309        -1.390039
 H        -5.133684         0.553865        -0.765575
 H        -4.704095        -0.232275        -3.524710
 H        -5.008356         1.514748        -2.939098
