19
Iteration:   884
 C         1.469268         0.084194         0.032761
 C         0.001023         0.014773         0.046665
 C        -1.206411         0.140254         0.009854
 C        -2.659764         0.268753         0.137897
 O        -2.994115        -0.338131         1.328839
 C        -3.368282        -0.287039        -1.145588
 C        -4.743520         0.320416        -1.584222
 C        -3.926732         0.834386        -2.817542
 O        -2.711634         0.368054        -2.247050
 H         1.733730         0.424154        -0.910204
 H         1.798854         0.688529         0.928207
 H         1.891898        -0.937269         0.142664
 H        -3.156151         1.238708         0.282161
 H        -2.719220        -1.270372         1.277251
 H        -3.306280        -1.375342        -1.102319
 H        -5.614240        -0.243189        -1.919057
 H        -5.028225         0.994785        -0.796570
 H        -4.122220         0.360632        -3.768413
 H        -4.058206         1.882389        -3.059144
