19
Iteration:  2238charge 0 multiplicity 1
 C         1.470520        -0.129992        -0.234361
 C        -0.018671         0.027489        -0.094577
 C        -1.188287         0.290109         0.129228
 C        -2.588336         0.528015         0.227150
 O        -3.167798         0.187508         1.552625
 C        -3.323068        -0.204576        -0.990413
 C        -4.648803         0.411636        -1.562200
 C        -3.914462         0.421473        -2.900398
 O        -2.656867        -0.180543        -2.331441
 H         1.937734        -0.954877         0.253985
 H         1.738789        -0.424965        -1.195118
 H         1.819777         0.803485        -0.032927
 H        -2.928411         1.611992         0.073470
 H        -4.075567         0.397887         1.452756
 H        -3.411722        -1.289555        -0.808602
 H        -5.566696        -0.120355        -1.291199
 H        -4.779514         1.459813        -1.231804
 H        -4.085843        -0.402115        -3.677455
 H        -4.002003         1.422484        -3.425297
