19
Iteration:   167charge 0 multiplicity 1
 C         1.609429        -0.091835         0.397089
 C         0.170138        -0.018273         0.072673
 C        -1.039079         0.115729        -0.070745
 C        -2.481770         0.059738         0.005435
 O        -3.092859        -0.912139         0.982514
 C        -3.115948        -0.152600        -1.466551
 C        -4.706503         0.152048        -1.398346
 C        -4.397931         1.205935        -2.373437
 O        -2.922211         0.997207        -2.348750
 H         2.178003         0.406703        -0.412697
 H         1.676546         0.559523         1.249666
 H         1.959732        -0.973294         0.683201
 H        -2.771250         1.032292         0.297315
 H        -3.823468        -1.308408         0.400981
 H        -2.908288        -1.128071        -1.921244
 H        -5.404122        -0.559143        -1.886373
 H        -4.948604         0.703671        -0.532209
 H        -4.782261         1.174592        -3.416456
 H        -4.479767         2.230967        -2.070632
