19
Iteration:  2733
 C         1.417950        -0.279774         0.036347
 C         0.007207         0.032302        -0.081181
 C        -1.156125         0.306546        -0.139085
 C        -2.536304         0.624810        -0.067426
 O        -2.975958         0.817663         1.375256
 C        -3.328358        -0.440206        -0.915232
 C        -4.672043         0.113355        -1.415435
 C        -4.005671         0.351299        -2.731476
 O        -2.815795        -0.254768        -2.304383
 H         1.929021         0.510090        -0.586453
 H         1.850913        -0.390335         1.081641
 H         1.622835        -1.179406        -0.459381
 H        -2.704619         1.578510        -0.446942
 H        -3.823672         0.409729         1.356396
 H        -3.125205        -1.396031        -0.475869
 H        -5.463575        -0.630398        -1.517421
 H        -5.108341         1.037353        -1.084633
 H        -4.389366        -0.144218        -3.654643
 H        -3.922264         1.460548        -3.044524
