19
Iteration:  2248charge 0 multiplicity 1
 C         1.429460        -0.096554        -0.239984
 C        -0.018101        -0.011397        -0.085462
 C        -1.145115         0.274447         0.200033
 C        -2.629112         0.568588         0.166142
 O        -3.195814         0.207869         1.503466
 C        -3.314069        -0.287928        -0.985495
 C        -4.582701         0.419746        -1.477707
 C        -3.913566         0.389125        -2.899480
 O        -2.682365        -0.150339        -2.396733
 H         1.714857        -0.963798         0.300681
 H         1.558366        -0.081502        -1.301178
 H         2.032660         0.685765         0.115975
 H        -2.562229         1.689625        -0.024203
 H        -4.153838         0.302321         1.432128
 H        -3.251458        -1.294000        -0.539651
 H        -5.468563        -0.159693        -1.251579
 H        -4.598166         1.416257        -1.057849
 H        -4.558071        -0.278756        -3.674484
 H        -3.669232         1.435074        -3.299993
