19
Iteration:  4639charge 0 multiplicity 1
 C         1.451698        -0.464338        -0.088683
 C         0.104347         0.137910         0.189239
 C        -1.005897         0.499149        -0.050625
 C        -2.310227         0.940242        -0.380213
 O        -3.044904         1.551344         0.739460
 C        -3.305095        -0.118873        -0.818198
 C        -4.642550         0.436626        -1.376480
 C        -4.335577        -0.692363        -2.494338
 O        -2.976563        -0.991372        -1.888993
 H         1.891824        -0.504848         0.874914
 H         1.340288        -1.586419        -0.349740
 H         2.066153        -0.019282        -0.947088
 H        -2.328310         1.742649        -1.151967
 H        -2.635359         2.317234         1.080527
 H        -3.498466        -0.893844         0.024942
 H        -5.428898         0.403023        -0.570413
 H        -4.469611         1.410769        -1.849886
 H        -4.995957        -1.566783        -2.411245
 H        -4.170808        -0.358018        -3.538885
