19
Iteration:  4682
 C         1.414636        -0.513556         0.013908
 C         0.076383        -0.009335        -0.268799
 C        -1.018279         0.431965        -0.125972
 C        -2.429809         1.017262        -0.190793
 O        -3.023038         1.765378         0.835002
 C        -3.379818        -0.081070        -0.694404
 C        -4.701948         0.331260        -1.469821
 C        -4.212761        -0.809430        -2.449432
 O        -2.850991        -0.859537        -1.893252
 H         1.477560        -1.025520         0.893135
 H         1.586817        -1.386237        -0.710981
 H         2.131993         0.366327        -0.042515
 H        -2.342806         1.709381        -1.059345
 H        -2.380725         1.928241         1.489171
 H        -3.684613        -0.808127         0.139358
 H        -5.669713         0.083135        -1.001152
 H        -4.536365         1.256250        -1.998027
 H        -4.577791        -1.871665        -2.537334
 H        -4.091772        -0.373445        -3.481838
