19
Iteration:  2018
 C         1.522833        -0.193125         0.109772
 C         0.088616        -0.143120         0.064248
 C        -1.084848         0.149489         0.181836
 C        -2.439645         0.506933        -0.022036
 O        -3.185831         0.338627         1.169842
 C        -3.195008        -0.289105        -1.146889
 C        -4.686250        -0.028412        -1.431277
 C        -4.237217         0.439196        -2.820788
 O        -2.878410         0.413733        -2.366683
 H         2.084597        -0.077670        -0.901581
 H         1.689794         0.703751         0.790127
 H         1.954401        -0.921259         0.759130
 H        -2.437952         1.468166        -0.407439
 H        -2.593071         0.563709         1.932533
 H        -2.885267        -1.327606        -1.065884
 H        -5.334229        -0.956924        -1.362855
 H        -5.152260         0.643755        -0.670326
 H        -4.540903        -0.187398        -3.638754
 H        -4.475671         1.515216        -2.976653
