19
Iteration:  2650
 C         1.417529        -0.376062         0.214097
 C         0.142287         0.210825         0.140651
 C        -1.028701         0.470858        -0.020241
 C        -2.402655         0.683952        -0.095512
 O        -2.964282         0.516693         1.125359
 C        -3.230289        -0.365092        -1.073762
 C        -4.717174         0.074752        -1.233622
 C        -4.325981         0.320441        -2.800508
 O        -2.945469        -0.201957        -2.497052
 H         1.650505        -1.183279        -0.446320
 H         2.096765         0.377811         0.011070
 H         1.534461        -0.875331         1.271729
 H        -2.627780         1.743622        -0.443340
 H        -2.931650         1.427233         1.592225
 H        -3.002465        -1.439748        -0.782942
 H        -5.517762        -0.686492        -1.036288
 H        -5.006192         1.021431        -0.673454
 H        -4.729854        -0.340211        -3.595453
 H        -4.256840         1.439931        -3.001820
