19
Iteration:  4783
 C         1.195902        -0.721058         0.097388
 C         0.075219         0.160699        -0.380340
 C        -1.005115         0.697202        -0.270716
 C        -2.429556         1.081194        -0.367955
 O        -2.968720         1.664482         0.793299
 C        -3.325620        -0.088617        -0.638790
 C        -4.698383         0.178436        -1.348389
 C        -4.091732        -0.717170        -2.489674
 O        -2.861451        -0.886209        -1.783796
 H         0.902670        -1.665411        -0.175479
 H         2.139347        -0.344315        -0.279644
 H         1.406856        -0.608151         1.134091
 H        -2.372342         1.868008        -1.140035
 H        -2.262269         1.786772         1.488130
 H        -3.337748        -0.698875         0.242542
 H        -5.516667        -0.190634        -0.698027
 H        -4.902871         1.253014        -1.457830
 H        -4.603536        -1.722249        -2.425076
 H        -3.907087        -0.439216        -3.533618
