19
Iteration:   323charge 0 multiplicity 1
 C         1.313912         0.113512        -0.400280
 C        -0.023450        -0.037174         0.220992
 C        -1.196934         0.012756         0.526339
 C        -2.628982         0.155186         0.277279
 O        -3.213023        -0.876356         1.060581
 C        -3.100901        -0.126074        -1.223970
 C        -4.602989         0.091594        -1.656730
 C        -3.954405         1.061131        -2.692205
 O        -2.653243         0.978117        -2.111097
 H         2.166863         0.119429         0.363543
 H         1.514034        -0.653882        -1.127947
 H         1.310996         1.173319        -0.908710
 H        -2.841038         1.197768         0.585179
 H        -3.886900        -1.244207         0.487243
 H        -2.469154        -1.010831        -1.389436
 H        -5.265580        -0.727010        -1.981168
 H        -5.232444         0.543608        -0.738325
 H        -3.827606         0.459339        -3.626213
 H        -4.369107         2.014080        -2.917462
