19
Iteration:  1279charge 0 multiplicity 1
 C         1.604310        -0.236143         0.317983
 C         0.174950        -0.145801         0.338902
 C        -0.995464         0.105552         0.100926
 C        -2.441145         0.423610        -0.056587
 O        -3.202793        -0.060637         1.130498
 C        -3.034125        -0.039934        -1.336871
 C        -4.571324        -0.078064        -1.372342
 C        -4.546174         0.573231        -2.733839
 O        -3.040127         0.780583        -2.579148
 H         2.008947         0.296417        -0.485674
 H         2.020403         0.183569         1.353233
 H         1.970545        -1.298775         0.190278
 H        -2.570224         1.507742         0.071915
 H        -2.646663        -0.710038         1.587867
 H        -2.616600        -1.059877        -1.555102
 H        -5.026686        -1.091460        -1.301825
 H        -5.001788         0.550279        -0.585592
 H        -4.626199         0.043913        -3.749565
 H        -5.017940         1.602821        -2.922737
