19
Iteration:  4842
 C         1.263593        -0.575741        -0.024694
 C        -0.045997        -0.018932         0.113297
 C        -1.032688         0.655549        -0.091747
 C        -2.360381         1.038480        -0.460185
 O        -2.843369         1.822003         0.711730
 C        -3.210375        -0.216139        -0.655967
 C        -4.666076         0.082963        -1.235714
 C        -4.298612        -0.638678        -2.508570
 O        -2.906842        -0.912130        -1.929321
 H         1.471940        -0.872536        -1.085154
 H         2.067755         0.117815        -0.079729
 H         1.469651        -1.495148         0.441001
 H        -2.346322         1.639021        -1.408390
 H        -3.338269         2.538799         0.367646
 H        -3.130261        -0.906801         0.274858
 H        -5.440223        -0.227798        -0.544614
 H        -4.708917         1.195146        -1.403780
 H        -4.724466        -1.594243        -2.727308
 H        -4.194729        -0.108123        -3.448619
