19
Iteration:   725
 C         1.452121        -0.402185         0.176781
 C         0.051585         0.045378        -0.039094
 C        -1.108081         0.429377        -0.076205
 C        -2.587781         0.464220         0.063720
 O        -3.215915        -0.376855         1.151501
 C        -3.021188        -0.177746        -1.235410
 C        -4.482126        -0.309623        -1.605845
 C        -4.259264         0.747555        -2.663572
 O        -2.906148         0.982050        -2.130444
 H         1.509844        -1.108127         1.077571
 H         2.035331        -0.811616        -0.609781
 H         2.048003         0.442488         0.507934
 H        -3.013275         1.458147         0.289653
 H        -2.605051        -0.322832         1.919800
 H        -2.565350        -1.082685        -1.409340
 H        -4.956161        -1.252244        -1.877539
 H        -5.064888         0.198498        -0.814753
 H        -4.321784         0.348947        -3.628994
 H        -4.754372         1.657504        -2.707538
