19
Iteration:   958
 C         1.420579         0.079057         0.029717
 C        -0.017569         0.207146        -0.120844
 C        -1.183018         0.424492         0.175961
 C        -2.562437         0.313815         0.171302
 O        -3.194461        -0.435331         1.208399
 C        -3.356920        -0.443748        -1.164112
 C        -4.629935         0.426768        -1.449736
 C        -3.759747         1.003532        -2.626662
 O        -2.841903        -0.096847        -2.463286
 H         1.971161         1.006633         0.253934
 H         1.421852        -0.597624         0.898140
 H         1.940687        -0.359158        -0.956956
 H        -3.046527         1.331986         0.116404
 H        -2.386884        -0.819969         1.724978
 H        -3.337798        -1.546372        -1.138462
 H        -5.488932        -0.242762        -1.691097
 H        -4.871811         1.198970        -0.701875
 H        -4.340894         1.097922        -3.621152
 H        -3.308421         2.045246        -2.466571
