19
Iteration:   600
 C         1.620760        -0.030893         0.491340
 C         0.208126         0.036002         0.091042
 C        -1.024180         0.061325         0.028200
 C        -2.469022         0.164424        -0.028993
 O        -3.235416        -0.500164         1.018949
 C        -3.167816        -0.236104        -1.423079
 C        -4.619839         0.039914        -1.408605
 C        -4.367322         1.055755        -2.526273
 O        -3.004029         0.739300        -2.517535
 H         2.064323         0.926661         0.725503
 H         1.802303        -0.650968         1.516471
 H         2.256992        -0.324132        -0.453632
 H        -2.782529         1.330039         0.065335
 H        -2.540841        -0.810591         1.629616
 H        -2.735771        -1.160199        -1.832434
 H        -5.312935        -0.802824        -1.612427
 H        -4.939539         0.345994        -0.377347
 H        -4.694842         0.874423        -3.585890
 H        -4.555551         2.113540        -2.268157
