19
Iteration:   838charge 0 multiplicity 1
 C         1.513702         0.014840        -0.025895
 C         0.043483         0.041267        -0.067527
 C        -1.146120         0.021667         0.231203
 C        -2.557165         0.330463         0.198857
 O        -3.364343        -0.399005         1.176761
 C        -3.139876        -0.147609        -1.152128
 C        -4.592215         0.245405        -1.409661
 C        -4.145600         0.644880        -2.796991
 O        -2.713052         0.628926        -2.356749
 H         1.863036        -0.427702        -0.955350
 H         1.787853         1.033686         0.258434
 H         1.921107        -0.695512         0.872098
 H        -2.578545         1.460402         0.373589
 H        -2.715930        -0.901448         1.598555
 H        -2.905676        -1.216385        -1.100144
 H        -5.292483        -0.615710        -1.424484
 H        -5.022718         1.112039        -0.896144
 H        -4.258733        -0.048687        -3.658533
 H        -4.371770         1.566726        -3.389531
