19
Iteration:  3052charge 0 multiplicity 1
 C         1.616871        -0.216183         0.241168
 C         0.184617        -0.061432        -0.105169
 C        -1.002545         0.284020         0.015507
 C        -2.402368         0.693227        -0.123895
 O        -3.128352         1.087977         1.193933
 C        -3.223312        -0.317767        -1.033548
 C        -4.726940        -0.075136        -1.295942
 C        -4.373744        -0.101594        -2.757565
 O        -2.935962        -0.072223        -2.418002
 H         2.018863         0.905374         0.070386
 H         1.905137        -0.677812         1.319331
 H         2.072119        -0.893330        -0.495929
 H        -2.399913         1.666121        -0.587576
 H        -3.801891         0.466323         1.436762
 H        -2.964777        -1.348541        -0.516359
 H        -5.385072        -0.831640        -0.881221
 H        -5.108875         0.832297        -0.811259
 H        -4.630848        -0.900504        -3.414780
 H        -4.634606         0.845289        -3.296696
