19
Iteration:  2884
 C         1.441086        -0.261420        -0.215591
 C         0.006288         0.011514        -0.045440
 C        -1.158580         0.389082        -0.019773
 C        -2.549896         0.795171         0.093858
 O        -3.077444         0.732986         1.522816
 C        -3.373806        -0.079359        -0.884152
 C        -4.745323         0.212153        -1.629991
 C        -3.996745        -0.066325        -2.927459
 O        -2.665221        -0.287725        -2.158753
 H         1.557829        -1.353602         0.118765
 H         1.704591        -0.424209        -1.283288
 H         2.189762         0.470006         0.220312
 H        -2.734584         1.763139        -0.284186
 H        -3.329856        -0.143035         1.747727
 H        -3.425057        -1.070427        -0.356568
 H        -5.597574        -0.421067        -1.438005
 H        -4.954490         1.222612        -1.429813
 H        -4.111138        -1.062917        -3.357960
 H        -3.978073         0.657297        -3.668446
