19
Iteration:  1305
 C         1.692755        -0.178748         0.395412
 C         0.212605        -0.108130         0.176944
 C        -0.980861         0.031786         0.173209
 C        -2.406402         0.390091        -0.089043
 O        -3.360132        -0.038477         0.928641
 C        -2.992986        -0.171492        -1.347429
 C        -4.604594        -0.056686        -1.257071
 C        -4.522875         0.679114        -2.585382
 O        -3.041198         0.711909        -2.583506
 H         2.285913         0.677178        -0.127572
 H         1.885515        -0.150354         1.448704
 H         2.022497        -1.035999        -0.122207
 H        -2.497787         1.540545         0.054509
 H        -2.926992        -0.405612         1.734418
 H        -2.601485        -1.199385        -1.549636
 H        -5.252761        -0.947858        -1.236886
 H        -4.850492         0.667871        -0.430636
 H        -4.758229         0.094169        -3.521891
 H        -4.759927         1.719161        -2.856796
