19
Iteration:   351
 C         1.350405         0.159861        -0.349676
 C        -0.061301         0.112495         0.084213
 C        -1.265692        -0.018510         0.219779
 C        -2.729934        -0.034012         0.261484
 O        -3.296576        -0.912372         1.240341
 C        -3.086389        -0.132971        -1.205904
 C        -4.493750         0.152720        -1.651059
 C        -3.864522         1.021500        -2.669753
 O        -2.611084         0.973474        -2.055636
 H         2.109654        -0.440281         0.266644
 H         1.454241        -0.169853        -1.416457
 H         1.589581         1.159097        -0.466092
 H        -2.889551         1.093293         0.471825
 H        -4.212594        -0.495557         1.362335
 H        -2.539762        -1.049926        -1.486905
 H        -5.025506        -0.723175        -2.042423
 H        -5.063117         0.677795        -0.868966
 H        -3.818252         0.533008        -3.658865
 H        -4.354814         2.049943        -2.830464
