19
Iteration:  2912
 C         1.326126        -0.325294        -0.101705
 C        -0.088498         0.044151        -0.185497
 C        -1.157476         0.570741         0.008502
 C        -2.551014         0.784125         0.008642
 O        -2.958837         0.636309         1.434282
 C        -3.299073        -0.177315        -0.855977
 C        -4.668015         0.240115        -1.571708
 C        -3.979680        -0.154012        -2.798309
 O        -2.701989        -0.210713        -2.185378
 H         1.393790        -1.355314        -0.272677
 H         1.859602         0.118766        -0.941284
 H         1.872851        -0.075778         0.836246
 H        -2.935321         1.819691        -0.510653
 H        -3.714009         0.078743         1.509971
 H        -3.282550        -1.184000        -0.403072
 H        -5.725302        -0.119368        -1.335777
 H        -4.742071         1.408358        -1.452890
 H        -4.153804        -1.168770        -3.219352
 H        -4.066381         0.645754        -3.692826
