19
Iteration:  3294
 C         1.510079        -0.320955        -0.004958
 C         0.116556         0.141598         0.136307
 C        -1.067574         0.378919         0.149110
 C        -2.430038         0.740104        -0.181065
 O        -3.118033         1.012777         1.156701
 C        -3.164377        -0.372048        -0.990166
 C        -4.662723         0.198184        -1.267835
 C        -4.295075        -0.040731        -2.694446
 O        -2.904507        -0.498524        -2.402319
 H         1.728142        -0.569918        -1.104994
 H         2.281983         0.519025         0.096759
 H         1.729322        -1.127148         0.624010
 H        -2.441953         1.652777        -0.869241
 H        -3.557688         1.864551         1.028182
 H        -3.217437        -1.391515        -0.493422
 H        -5.544629        -0.325120        -0.858037
 H        -4.809715         1.284581        -1.201816
 H        -4.795193        -0.935332        -3.192536
 H        -4.182517         0.856576        -3.323526
