19
Iteration:  1880charge 0 multiplicity 1
 C         1.479659        -0.347344         0.604792
 C         0.157211         0.117152         0.076385
 C        -0.964762         0.359262        -0.213854
 C        -2.416739         0.455053        -0.182036
 O        -2.857416         0.195867         1.207082
 C        -3.242028        -0.263368        -1.200844
 C        -4.807220        -0.180446        -1.450645
 C        -4.396205         0.683586        -2.683634
 O        -3.021289         0.411305        -2.496808
 H         1.411477        -1.137662         1.363929
 H         2.221196        -0.631491        -0.198144
 H         1.996038         0.591640         1.201017
 H        -2.605266         1.486681        -0.351953
 H        -2.952185        -0.787066         1.367882
 H        -2.845119        -1.306808        -1.253335
 H        -5.293958        -1.157807        -1.664930
 H        -5.292584         0.145484        -0.528475
 H        -4.598414         0.306120        -3.730697
 H        -4.787376         1.666848        -2.454888
