19
Iteration:  4449charge 0 multiplicity 1
 C         1.499340        -0.302468         0.500879
 C         0.195138         0.153165         0.046607
 C        -0.932645         0.432255        -0.418016
 C        -2.326333         0.771767        -0.659545
 O        -2.956805         1.465657         0.547106
 C        -3.244264        -0.413105        -0.772536
 C        -4.657880         0.292919        -0.979643
 C        -4.481702        -0.325264        -2.394220
 O        -3.159993        -0.831545        -2.148733
 H         2.261371        -0.590020        -0.201096
 H         2.041365         0.497326         1.025298
 H         1.260384        -1.095534         1.263239
 H        -2.512631         1.365842        -1.558449
 H        -2.439615         2.170323         1.057149
 H        -3.018341        -1.317039        -0.106810
 H        -5.354958        -0.282462        -0.426978
 H        -4.558020         1.327718        -0.730500
 H        -5.078966        -1.158825        -2.804363
 H        -4.448009         0.388494        -3.265200
