19
Iteration:  1973
 C         1.517717        -0.346266         0.299720
 C         0.204233         0.154861         0.239423
 C        -0.967894         0.324711        -0.035368
 C        -2.408234         0.559765        -0.063818
 O        -3.189509         0.134229         1.124907
 C        -3.134990        -0.256380        -1.171694
 C        -4.633037        -0.093849        -1.325228
 C        -4.411639         0.608772        -2.686765
 O        -2.952169         0.262931        -2.588406
 H         1.518167        -1.200041        -0.487903
 H         2.421566         0.333635         0.131932
 H         1.646166        -0.855457         1.233871
 H        -2.557243         1.587623        -0.226148
 H        -3.184678         0.887677         1.709688
 H        -2.663917        -1.209587        -1.140465
 H        -5.360936        -0.909774        -1.404497
 H        -5.163105         0.623067        -0.676123
 H        -4.721408         0.045955        -3.529883
 H        -4.751507         1.684538        -2.749279
