19
Iteration:  1293
 C         1.698332        -0.222099         0.362771
 C         0.205250        -0.124737         0.243369
 C        -0.999520         0.057696         0.117642
 C        -2.418125         0.436191        -0.006398
 O        -3.360977        -0.061184         1.043615
 C        -3.093553        -0.105854        -1.442270
 C        -4.561609        -0.048874        -1.263345
 C        -4.454645         0.636216        -2.660600
 O        -3.017423         0.742765        -2.615746
 H         2.101650         0.623840        -0.266638
 H         2.101028         0.008249         1.402062
 H         2.130118        -1.142869         0.135348
 H        -2.463101         1.590155        -0.189599
 H        -2.746028        -0.570373         1.675155
 H        -2.647903        -1.106540        -1.731785
 H        -5.019335        -1.071662        -1.204299
 H        -4.981871         0.552014        -0.398748
 H        -4.936061        -0.127880        -3.356598
 H        -5.099877         1.567751        -2.610205
