19
Iteration:  3115charge 0 multiplicity 1
 C         1.586880        -0.233497         0.402281
 C         0.128264         0.103338         0.298380
 C        -0.967101         0.409404        -0.152235
 C        -2.432868         0.721296        -0.346581
 O        -3.015954         0.902037         1.002383
 C        -3.178656        -0.436043        -1.066710
 C        -4.674238        -0.037565        -1.131127
 C        -4.456738         0.110104        -2.627966
 O        -3.086818        -0.281820        -2.580667
 H         2.080923         0.167377         1.317343
 H         1.936252        -1.285781         0.250788
 H         2.056244         0.192743        -0.461543
 H        -2.480342         1.741363        -0.855161
 H        -2.303723         1.157104         1.563612
 H        -2.863650        -1.442713        -0.822537
 H        -5.377904        -0.795286        -0.792973
 H        -4.845764         0.958501        -0.637835
 H        -5.074743        -0.595468        -3.296999
 H        -4.647863         1.097640        -3.008732
