19
Iteration:   366
 C         1.379311         0.214709        -0.348876
 C        -0.043283         0.132854        -0.066242
 C        -1.223244        -0.006253         0.199155
 C        -2.683613         0.043821         0.303908
 O        -3.391346        -0.924807         1.231106
 C        -3.109627        -0.228543        -1.221618
 C        -4.571779         0.114380        -1.636592
 C        -3.874895         1.048447        -2.722228
 O        -2.526213         0.964532        -1.987681
 H         1.814956        -0.621664         0.352049
 H         1.559076        -0.103133        -1.355311
 H         1.920319         1.126659         0.079172
 H        -3.153731         0.977794         0.704049
 H        -3.864280        -0.476787         1.874419
 H        -2.829836        -1.195504        -1.664767
 H        -5.260883        -0.629958        -1.966249
 H        -5.203448         0.534451        -0.897991
 H        -3.804946         0.579436        -3.716649
 H        -4.056831         2.087301        -2.846474
