19
Iteration:  4384
 C         1.622326        -0.356392         0.312540
 C         0.217583         0.055303         0.231073
 C        -0.931630         0.238376        -0.066519
 C        -2.278706         0.877981        -0.445780
 O        -2.838234         1.795397         0.559037
 C        -3.352830        -0.296783        -0.839698
 C        -4.869114        -0.117304        -1.028927
 C        -4.550109        -0.497250        -2.625997
 O        -3.131701        -0.565250        -2.209017
 H         1.684910        -1.342760        -0.092283
 H         2.344128         0.240780        -0.273483
 H         1.954091        -0.137104         1.419625
 H        -2.169317         1.271160        -1.464187
 H        -2.170101         2.501898         0.717926
 H        -3.141589        -1.223238        -0.309172
 H        -5.372008        -0.806403        -0.359902
 H        -5.262024         0.889244        -0.934681
 H        -5.005978        -1.424471        -2.848761
 H        -4.727434         0.280497        -3.375346
