19
Iteration:  4073
 C         1.438652        -0.330639        -0.195005
 C        -0.044551        -0.188885        -0.060206
 C        -1.137122         0.340416        -0.018236
 C        -2.523141         0.918432        -0.260980
 O        -2.929398         1.774065         0.882377
 C        -3.438266        -0.249919        -0.674672
 C        -4.665889         0.185686        -1.350222
 C        -3.944723        -0.287296        -2.692200
 O        -2.911359        -0.977985        -1.845816
 H         2.016110         0.159254        -1.064648
 H         1.955864         0.223572         0.671201
 H         1.728547        -1.345750        -0.101683
 H        -2.322049         1.703498        -1.056939
 H        -3.391477         1.141719         1.466940
 H        -3.581207        -1.018456         0.192340
 H        -5.579094        -0.343409        -1.099729
 H        -4.851651         1.269031        -1.285556
 H        -4.326564        -0.962683        -3.452592
 H        -3.508035         0.547177        -3.294909
