19
Iteration:   721
 C         1.422595        -0.390036         0.205916
 C         0.048268         0.064927        -0.037330
 C        -1.118988         0.411691        -0.062407
 C        -2.578437         0.423907         0.057560
 O        -3.190893        -0.360085         1.149879
 C        -3.017255        -0.148633        -1.250970
 C        -4.526432        -0.323443        -1.577679
 C        -4.248691         0.784686        -2.677114
 O        -2.899173         0.969925        -2.139588
 H         1.394914        -1.039420         1.095964
 H         2.032138        -0.932824        -0.667150
 H         2.155522         0.381421         0.418558
 H        -2.974926         1.413990         0.254799
 H        -2.448168        -0.292121         1.773106
 H        -2.450155        -1.129360        -1.450716
 H        -4.935623        -1.285695        -1.979170
 H        -5.074006         0.058375        -0.727519
 H        -4.195826         0.249670        -3.690227
 H        -4.934418         1.719047        -2.557799
