19
Iteration:  3190
 C         1.427761        -0.282553         0.571483
 C         0.122016         0.188257         0.096113
 C        -0.932369         0.442799        -0.455014
 C        -2.400989         0.705966        -0.324048
 O        -2.699695         0.883445         1.155749
 C        -3.160741        -0.396617        -1.013041
 C        -4.764010        -0.011988        -1.208488
 C        -4.465466         0.142073        -2.665010
 O        -3.127650        -0.392352        -2.474906
 H         1.402645        -1.061774         1.231744
 H         2.040905        -0.413786        -0.225227
 H         1.949508         0.561203         1.051089
 H        -2.604454         1.677253        -0.822715
 H        -3.623372         1.317428         1.181121
 H        -2.977059        -1.308917        -0.560536
 H        -5.417566        -0.869907        -1.034359
 H        -5.158107         0.814524        -0.586939
 H        -5.036761        -0.446765        -3.467434
 H        -4.331255         1.177734        -3.166792
