19
Iteration:  3563
 C         1.502192        -0.142298        -0.290718
 C         0.050030         0.029615         0.125169
 C        -1.153820         0.129743         0.015384
 C        -2.478813         0.839544        -0.034225
 O        -3.123564         1.174550         1.209259
 C        -3.389190        -0.185813        -0.808909
 C        -4.718786         0.273814        -1.535008
 C        -4.034249        -0.298641        -2.792707
 O        -2.813064        -0.644221        -2.044996
 H         1.996057        -1.069756        -0.136950
 H         1.488099         0.195901        -1.277148
 H         2.367184         0.471481         0.239875
 H        -2.281023         1.746436        -0.705058
 H        -2.760443         2.059964         1.458280
 H        -3.388726        -1.047485        -0.239498
 H        -5.631141        -0.346858        -1.359464
 H        -4.785423         1.388804        -1.586701
 H        -4.524100        -1.303739        -3.007958
 H        -3.919342         0.421198        -3.609942
