19
Iteration:  2373
 C         1.465639        -0.346235         0.164199
 C         0.066478        -0.013360        -0.049216
 C        -1.093228         0.414233        -0.216738
 C        -2.580234         0.685367         0.000794
 O        -2.986519         0.480154         1.339347
 C        -3.269294        -0.321504        -1.019054
 C        -4.719240        -0.125889        -1.417514
 C        -4.132555         0.402217        -2.756406
 O        -2.771097         0.095944        -2.297755
 H         1.896367        -0.173038        -0.847253
 H         1.883004         0.426952         0.687415
 H         1.730825        -1.320489         0.538100
 H        -2.937360         1.667463        -0.501043
 H        -3.983292         0.636711         1.269808
 H        -2.941801        -1.335286        -0.776003
 H        -5.454130        -0.970703        -1.511116
 H        -5.271791         0.636458        -0.812603
 H        -4.556638         0.064459        -3.798965
 H        -4.171327         1.574621        -2.848384
