19
Iteration:  4033
 C         1.447722        -0.446050        -0.055124
 C         0.077207         0.118913        -0.149571
 C        -1.158929         0.350197        -0.097189
 C        -2.540038         0.871394        -0.284717
 O        -2.840270         1.563518         0.952843
 C        -3.563743        -0.204627        -0.685083
 C        -4.790174         0.113476        -1.483937
 C        -3.946578        -0.410953        -2.671293
 O        -2.868542        -0.713636        -1.806944
 H         1.836469        -0.875318        -0.926243
 H         2.096829         0.260321         0.411851
 H         1.202367        -1.293004         0.674528
 H        -2.706385         1.520194        -1.142492
 H        -1.937655         1.719483         1.338786
 H        -3.608373        -0.771465         0.238016
 H        -5.664591        -0.399479        -1.022520
 H        -5.064411         1.185164        -1.460732
 H        -4.455053        -1.218373        -3.270848
 H        -3.752635         0.338110        -3.511483
