19
Iteration:  1895charge 0 multiplicity 1
 C         1.374111        -0.332441         0.597998
 C         0.103097         0.098173         0.098049
 C        -1.006789         0.360340        -0.173705
 C        -2.461374         0.609011        -0.143172
 O        -2.790567         0.158746         1.146298
 C        -3.171987        -0.288072        -1.271657
 C        -4.706773        -0.175082        -1.358154
 C        -4.443327         0.661590        -2.620687
 O        -2.980386         0.348268        -2.530866
 H         1.289461        -1.359418         1.030290
 H         2.134544        -0.434139        -0.279609
 H         1.821054         0.381937         1.254105
 H        -2.847903         1.625302        -0.156007
 H        -2.831507        -0.856085         1.034576
 H        -2.756662        -1.278448        -1.254990
 H        -5.135491        -1.147260        -1.617427
 H        -5.373178         0.403401        -0.697828
 H        -4.912657         0.323219        -3.501144
 H        -4.379035         1.800984        -2.683211
