19
Iteration:  3441charge 0 multiplicity 1
 C         1.162609        -0.491787        -0.335469
 C        -0.051582         0.260908        -0.042239
 C        -1.135451         0.830727        -0.097130
 C        -2.581610         1.053951         0.063159
 O        -2.964308         0.908334         1.506347
 C        -3.388484        -0.023858        -0.790332
 C        -4.658928         0.213001        -1.762560
 C        -3.830637        -0.440805        -2.846941
 O        -2.687200        -0.716389        -1.986110
 H         2.034669        -0.111428         0.184048
 H         1.192085        -1.600035        -0.220246
 H         1.356273        -0.388710        -1.526482
 H        -2.827107         2.158040        -0.125404
 H        -3.012467        -0.008552         1.734651
 H        -3.584153        -0.740746         0.054978
 H        -5.507505        -0.318149        -1.346669
 H        -4.772784         1.286799        -1.813860
 H        -4.127890        -1.442135        -3.199427
 H        -3.600362         0.041543        -3.771851
