19
Iteration:  4800charge 0 multiplicity 1
 C         1.261332        -0.746298         0.058564
 C         0.146890         0.159008        -0.309214
 C        -0.939491         0.653678        -0.264804
 C        -2.363749         1.127097        -0.420767
 O        -3.105986         1.635604         0.766387
 C        -3.307918        -0.103481        -0.661715
 C        -4.669733         0.167334        -1.287319
 C        -4.167683        -0.721138        -2.452532
 O        -2.864212        -0.843371        -1.752968
 H         1.251134        -1.831857        -0.466323
 H         2.310390        -0.369959        -0.060290
 H         1.062303        -0.827504         1.184414
 H        -2.543659         1.776505        -1.294900
 H        -2.612848         2.399557         1.155528
 H        -3.324239        -0.660143         0.349408
 H        -5.528854        -0.309735        -0.835861
 H        -4.892222         1.159791        -1.660174
 H        -4.701574        -1.622988        -2.681649
 H        -4.098525        -0.047073        -3.320439
