19
Iteration:   408charge 0 multiplicity 1
 C         1.342249         0.219048        -0.221549
 C        -0.049332         0.067799         0.000041
 C        -1.262376         0.081310         0.184823
 C        -2.711948         0.141271         0.243173
 O        -3.314118        -0.888807         1.188627
 C        -3.172755        -0.117008        -1.169140
 C        -4.600062         0.207037        -1.616905
 C        -3.864911         1.044072        -2.664864
 O        -2.541707         0.696211        -2.117649
 H         2.054786        -0.772469        -0.302418
 H         1.425521         0.774024        -1.134785
 H         1.849867         0.679380         0.602962
 H        -3.011656         1.237685         0.535320
 H        -2.501134        -1.533218         1.113577
 H        -2.883856        -1.176442        -1.407879
 H        -5.164688        -0.629751        -2.010450
 H        -5.132369         0.642677        -0.849190
 H        -4.045576         0.757173        -3.705053
 H        -4.162478         2.125069        -2.498587
