19
Iteration:  4107
 C         1.464800        -0.369274        -0.248485
 C         0.050071        -0.058736         0.106204
 C        -1.061695         0.508208         0.049998
 C        -2.374058         0.875200        -0.299580
 O        -3.122236         1.562440         0.718730
 C        -3.378024        -0.237627        -0.699092
 C        -4.603776         0.358491        -1.317232
 C        -3.978427        -0.282818        -2.665144
 O        -3.040943        -1.077446        -1.810623
 H         1.979301         0.399302        -0.920796
 H         2.057932        -0.528851         0.702464
 H         1.522461        -1.318266        -0.753868
 H        -2.110909         1.622678        -1.121904
 H        -3.714024         0.961803         1.118246
 H        -3.421129        -0.723343         0.356671
 H        -5.401218        -0.224530        -0.849198
 H        -4.851036         1.430179        -1.251795
 H        -4.478866        -0.830940        -3.447903
 H        -3.494928         0.690147        -2.941818
