19
Iteration:   450charge 0 multiplicity 1
 C         1.433134         0.162171        -0.108292
 C         0.023290         0.184984         0.272974
 C        -1.210655         0.160976         0.386061
 C        -2.636047         0.117914         0.081642
 O        -3.122073        -0.886621         1.171339
 C        -3.224047        -0.236905        -1.327999
 C        -4.666725         0.314974        -1.542274
 C        -4.001858         1.120798        -2.651573
 O        -2.686654         0.554929        -2.357948
 H         1.677240        -0.596227        -0.903681
 H         1.659879         1.140686        -0.464265
 H         2.068579         0.035730         0.691947
 H        -3.089979         1.023145         0.417580
 H        -3.338176        -1.843617         0.873305
 H        -3.148249        -1.337846        -1.416947
 H        -5.346883        -0.496954        -1.835385
 H        -5.069600         1.099375        -0.885683
 H        -4.205409         0.851876        -3.704520
 H        -3.958269         2.274483        -2.569798
