19
Iteration:  3844charge 0 multiplicity 1
 C         1.485084        -0.344309         0.343851
 C         0.141515        -0.047820        -0.047054
 C        -1.028757         0.251648         0.163463
 C        -2.266892         0.851059        -0.329269
 O        -2.892728         1.596346         0.669056
 C        -3.154566        -0.251928        -0.975795
 C        -4.696532        -0.073399        -1.035743
 C        -4.506524        -0.541884        -2.517260
 O        -3.067887        -0.236628        -2.394126
 H         1.706021        -0.026557         1.381339
 H         1.792942        -1.376645        -0.004238
 H         2.141549         0.268889        -0.265591
 H        -1.944749         1.559031        -1.199884
 H        -3.783772         1.191071         0.927406
 H        -2.915161        -1.215803        -0.542861
 H        -5.368976        -0.814753        -0.523726
 H        -5.090313         0.957100        -0.946730
 H        -4.798015        -1.590906        -2.575869
 H        -5.132745        -0.036861        -3.358685
