19
Iteration:  1430charge 0 multiplicity 1
 C         1.406710        -0.226745         0.235512
 C         0.094914         0.310790        -0.029260
 C        -1.144772         0.435099        -0.087085
 C        -2.665887         0.401009        -0.008119
 O        -3.065583        -0.204322         1.281333
 C        -3.248810        -0.402883        -1.108882
 C        -4.631722         0.181985        -1.410238
 C        -4.091246         0.876775        -2.656008
 O        -2.772234         0.151159        -2.502089
 H         1.575756        -0.210916         1.307731
 H         1.595736        -1.281711        -0.070000
 H         2.184927         0.456430        -0.273218
 H        -3.072870         1.497296         0.190481
 H        -2.716570        -1.089871         1.164654
 H        -3.007502        -1.475269        -1.125982
 H        -5.358332        -0.590795        -1.694461
 H        -5.038257         0.690700        -0.557843
 H        -4.555224         0.735218        -3.604827
 H        -3.921742         1.964103        -2.511198
