19
Iteration:  2411
 C         1.351259        -0.509939         0.239338
 C         0.112739         0.296030        -0.004396
 C        -1.070581         0.500848        -0.042514
 C        -2.486210         0.751492        -0.065545
 O        -2.906468         0.420277         1.333489
 C        -3.176336        -0.289679        -1.105420
 C        -4.686471        -0.095807        -1.321380
 C        -4.295665         0.385177        -2.770461
 O        -2.858884         0.004342        -2.537634
 H         2.110775        -0.045139        -0.439073
 H         1.648907        -0.453625         1.370211
 H         1.484055        -1.563690        -0.147513
 H        -2.809258         1.843786        -0.120445
 H        -3.898890         0.214901         1.260031
 H        -2.916817        -1.345450        -0.846820
 H        -5.133075        -1.061144        -1.144405
 H        -5.182109         0.695077        -0.761461
 H        -4.598975        -0.178919        -3.591292
 H        -4.521051         1.415140        -2.942494
