19
Iteration:  2962charge 0 multiplicity 1
 C         1.390767        -0.449436        -0.102521
 C         0.108267         0.268802        -0.018015
 C        -1.062920         0.641233         0.089094
 C        -2.476879         0.876603         0.052726
 O        -3.063363         0.557762         1.282457
 C        -3.275780        -0.155321        -0.950418
 C        -4.689715         0.178421        -1.415943
 C        -4.199499        -0.246563        -2.876564
 O        -2.738020        -0.214865        -2.285192
 H         1.607423        -1.152458        -1.032868
 H         2.267805         0.260856         0.177239
 H         1.348209        -1.237367         0.736405
 H        -2.731530         1.800736        -0.370579
 H        -3.682143         1.280030         1.531334
 H        -3.310264        -1.222219        -0.535014
 H        -5.610861        -0.261306        -1.075929
 H        -4.927731         1.200056        -1.251401
 H        -4.496334        -1.210769        -3.264431
 H        -4.251318         0.459521        -3.672626
