19
Iteration:  1922charge 0 multiplicity 1
 C         1.351022        -0.410144         0.537562
 C         0.080658         0.074413         0.113202
 C        -0.974519         0.562018        -0.224427
 C        -2.451148         0.601460        -0.102336
 O        -3.019432         0.069915         1.137652
 C        -3.086793        -0.235861        -1.303133
 C        -4.588155        -0.107016        -1.230572
 C        -4.381290         0.652597        -2.579631
 O        -3.004217         0.252228        -2.639589
 H         1.562397        -1.449024         0.595520
 H         2.005659         0.001582        -0.158447
 H         1.727439         0.143063         1.433123
 H        -2.944427         1.644403        -0.071428
 H        -2.246809        -0.518694         1.472104
 H        -2.622709        -1.276461        -1.301728
 H        -5.142232        -1.065525        -1.267740
 H        -5.161202         0.551845        -0.573877
 H        -4.946088         0.199937        -3.484260
 H        -4.344031         1.732642        -2.628530
