19
Iteration:  2151
 C         1.353958        -0.196117        -0.210715
 C        -0.058563         0.080750        -0.093614
 C        -1.185410         0.497598         0.204730
 C        -2.628769         0.596707         0.184761
 O        -3.150581        -0.027760         1.398522
 C        -3.302392        -0.196813        -0.959220
 C        -4.593073         0.452745        -1.533641
 C        -3.929707         0.270159        -2.932605
 O        -2.651269        -0.010718        -2.319082
 H         1.889598         0.473176         0.658478
 H         1.391234        -1.281854         0.145421
 H         1.944102        -0.215694        -1.209100
 H        -2.991437         1.614952        -0.002636
 H        -2.440041         0.038547         2.062340
 H        -3.525769        -1.273756        -0.661092
 H        -5.565768        -0.108271        -1.225841
 H        -4.629560         1.560545        -1.340630
 H        -4.146851        -0.608786        -3.432582
 H        -4.058108         1.109261        -3.642623
