19
Iteration:  3111charge 0 multiplicity 1
 C         1.594407        -0.229570         0.362363
 C         0.140733         0.093383         0.325818
 C        -0.987203         0.393424        -0.112269
 C        -2.436479         0.738483        -0.326407
 O        -2.984060         0.914629         0.955843
 C        -3.208575        -0.441038        -1.054155
 C        -4.704560        -0.056177        -1.159052
 C        -4.433146         0.073031        -2.621864
 O        -3.097911        -0.238285        -2.579114
 H         2.055927         0.207756         1.189961
 H         1.798142        -1.265176         0.444720
 H         2.098212         0.231402        -0.524627
 H        -2.490677         1.738447        -0.800154
 H        -2.229817         0.950122         1.643093
 H        -2.833091        -1.376473        -0.649381
 H        -5.484763        -0.781348        -0.861788
 H        -4.742991         0.865712        -0.615291
 H        -5.000231        -0.647068        -3.282373
 H        -4.540471         1.161705        -3.031587
