19
Iteration:  2517
 C         1.577002        -0.297699         0.317910
 C         0.218455        -0.002236         0.073488
 C        -0.975835         0.175223         0.085917
 C        -2.379146         0.605317        -0.089411
 O        -3.052022         0.652188         1.129614
 C        -3.293369        -0.219397        -1.067572
 C        -4.744482        -0.050528        -1.334042
 C        -4.429953         0.031885        -2.881818
 O        -3.017993         0.357902        -2.459517
 H         1.838769        -0.228545         1.335825
 H         1.826468        -1.270980         0.073854
 H         2.175891         0.288864        -0.400258
 H        -2.321368         1.578815        -0.427609
 H        -2.328466         0.565446         1.842743
 H        -2.954681        -1.238028        -1.130990
 H        -5.489855        -0.786306        -0.924192
 H        -5.038781         0.971758        -0.945457
 H        -4.477632        -1.018392        -3.324356
 H        -4.879197         0.844826        -3.550163
