19
Iteration:  4354charge 0 multiplicity 1
 C         1.462335        -0.370014         0.274808
 C         0.125725         0.040739         0.086597
 C        -0.992155         0.390528        -0.044083
 C        -2.331455         0.795332        -0.415859
 O        -2.860507         1.734483         0.490278
 C        -3.284885        -0.349787        -0.815654
 C        -4.758261        -0.023955        -0.977278
 C        -4.477251        -0.550568        -2.469161
 O        -2.986407        -0.460029        -2.264479
 H         1.460234        -1.447505         0.456517
 H         2.161458        -0.347652        -0.569855
 H         1.830298         0.167499         1.214637
 H        -2.228068         1.372909        -1.402295
 H        -2.375303         1.830248         1.298043
 H        -3.195912        -1.322752        -0.432309
 H        -5.413708        -0.544996        -0.269074
 H        -4.983425         1.052420        -1.131444
 H        -4.858129        -1.563028        -2.604986
 H        -4.863437         0.011406        -3.331230
