19
Iteration:  3073
 C         1.660042        -0.201161         0.254768
 C         0.203345         0.069208         0.113306
 C        -0.995999         0.173052        -0.049812
 C        -2.407253         0.756247        -0.122570
 O        -3.028124         1.073467         1.089775
 C        -3.248944        -0.263271        -1.024265
 C        -4.769172        -0.159261        -1.240166
 C        -4.398324        -0.007962        -2.751268
 O        -3.005159        -0.140913        -2.480164
 H         2.158336         0.746910         0.788530
 H         1.786051        -1.130222         0.995805
 H         2.183221        -0.605815        -0.627737
 H        -2.442519         1.557627        -0.839667
 H        -3.535255         0.312643         1.433165
 H        -2.967051        -1.372338        -0.718785
 H        -5.495410        -0.935892        -1.043997
 H        -5.223141         0.772187        -0.806003
 H        -4.860288        -0.786248        -3.327580
 H        -4.682194         0.898349        -3.244130
