19
Iteration:  3337
 C         1.431541        -0.307699        -0.261508
 C         0.088589         0.010353         0.098359
 C        -1.050765         0.386471         0.303079
 C        -2.419198         0.829863        -0.117989
 O        -3.214206         0.945212         1.109131
 C        -3.322271        -0.161757        -0.872035
 C        -4.698529         0.252528        -1.418991
 C        -4.108150        -0.236836        -2.751602
 O        -2.774465        -0.465872        -2.181100
 H         1.624939         0.163983        -1.297389
 H         2.313361         0.023914         0.358860
 H         1.574083        -1.281167        -0.511671
 H        -2.243075         1.787852        -0.656039
 H        -3.407790         1.871740         1.173647
 H        -3.306022        -1.108130        -0.355891
 H        -5.576678        -0.296684        -1.005422
 H        -4.846446         1.347392        -1.247780
 H        -4.466762        -1.329704        -3.048122
 H        -3.992522         0.633268        -3.463671
