19
Iteration:  1761charge 0 multiplicity 1
 C         1.592744        -0.150573         0.090064
 C         0.134033         0.093549         0.138281
 C        -1.052194         0.087596         0.275352
 C        -2.516333         0.367532         0.035251
 O        -3.268150        -0.080636         1.142502
 C        -3.164739        -0.180854        -1.224810
 C        -4.667663         0.114460        -1.447464
 C        -4.266962         0.583610        -2.801945
 O        -2.829447         0.490474        -2.431898
 H         2.187822         0.624706         0.547757
 H         1.616051        -1.126658         0.629468
 H         1.843181        -0.359316        -0.972253
 H        -2.519232         1.575370         0.105416
 H        -2.865812         0.131347         2.010234
 H        -2.990794        -1.264118        -1.216010
 H        -5.373815        -0.730045        -1.292909
 H        -5.090142         0.826546        -0.720110
 H        -4.393298        -0.087455        -3.647314
 H        -4.652349         1.628501        -3.064292
