19
Iteration:   391charge 0 multiplicity 1
 C         1.389866         0.203149        -0.263024
 C        -0.084955         0.129648        -0.157287
 C        -1.240501         0.020446         0.274320
 C        -2.675448         0.079411         0.292981
 O        -3.334810        -0.831520         1.061634
 C        -3.173317        -0.219844        -1.083874
 C        -4.578857         0.144039        -1.675379
 C        -3.828215         1.088547        -2.635888
 O        -2.591057         0.783236        -2.016810
 H         1.832389        -0.681427         0.010703
 H         1.736754         0.459219        -1.306319
 H         1.743284         0.928007         0.593438
 H        -3.110793         1.008798         0.573402
 H        -2.791571        -1.093165         1.835982
 H        -2.945024        -1.240041        -1.435323
 H        -5.318887        -0.658696        -2.001145
 H        -5.379113         0.725557        -1.012684
 H        -3.733105         0.581317        -3.629256
 H        -4.015492         2.144814        -2.825697
