19
Iteration:  4957charge 0 multiplicity 1
 C         1.449203        -0.416194         0.350022
 C         0.125380         0.108997         0.137615
 C        -0.930063         0.540970        -0.364584
 C        -2.283265         1.004127        -0.566033
 O        -2.771659         1.595787         0.611208
 C        -3.251602        -0.199186        -0.800575
 C        -4.670664         0.264524        -1.151545
 C        -4.512281        -0.592028        -2.435002
 O        -3.193412        -1.042264        -2.040462
 H         2.201168         0.360810         0.178360
 H         1.463600        -0.551907         1.410876
 H         1.373300        -1.216725        -0.443972
 H        -2.477540         1.687432        -1.411146
 H        -2.053216         2.126420         0.891271
 H        -3.414669        -0.762656         0.151556
 H        -5.422567        -0.051655        -0.431679
 H        -4.647196         1.361539        -1.198093
 H        -5.246198        -1.414358        -2.332668
 H        -4.543646        -0.168612        -3.467684
