19
Iteration:  2014charge 0 multiplicity 1
 C         1.531933        -0.196641         0.113395
 C         0.086548        -0.119850         0.082145
 C        -1.050611         0.152904         0.190046
 C        -2.452742         0.505772        -0.032225
 O        -3.174194         0.323744         1.168862
 C        -3.182508        -0.299362        -1.147450
 C        -4.721828        -0.067206        -1.461425
 C        -4.259440         0.473708        -2.775576
 O        -2.874418         0.417623        -2.401158
 H         2.043772        -0.209817        -0.845582
 H         1.827370         0.701047         0.790682
 H         1.898727        -0.969771         0.844789
 H        -2.502285         1.614193        -0.346133
 H        -2.612529         0.703598         1.845486
 H        -2.994568        -1.388396        -1.017518
 H        -5.320505        -0.932253        -1.294707
 H        -5.032353         0.676924        -0.723296
 H        -4.572473        -0.193018        -3.576826
 H        -4.469700         1.506725        -3.061497
