19
Iteration:  2427charge 0 multiplicity 1
 C         1.384088        -0.469356         0.207014
 C         0.121677         0.220604         0.112665
 C        -0.998397         0.586729        -0.084353
 C        -2.484956         0.738374        -0.071746
 O        -2.973470         0.362482         1.302061
 C        -3.084636        -0.222679        -1.122055
 C        -4.619898        -0.058203        -1.287411
 C        -4.330746         0.297884        -2.748853
 O        -2.946934         0.008169        -2.561767
 H         2.353195        -0.006810         0.033259
 H         1.444503        -0.864012         1.220067
 H         1.102379        -1.365895        -0.314102
 H        -2.837274         1.683733        -0.407542
 H        -3.993731         0.462957         1.323592
 H        -2.588355        -1.161391        -0.894684
 H        -5.385657        -0.875496        -1.267735
 H        -4.973766         0.803700        -0.673661
 H        -4.965988        -0.374106        -3.491921
 H        -4.351287         1.416756        -2.909931
