19
Iteration:  1485charge 0 multiplicity 1
 C         1.535007        -0.002532        -0.124473
 C         0.116050         0.035946         0.116261
 C        -1.097927         0.244792         0.094143
 C        -2.650777         0.412225         0.173105
 O        -3.359495        -0.163227         1.315512
 C        -3.255284        -0.226614        -1.123338
 C        -4.671063         0.238973        -1.511439
 C        -3.970825         0.779468        -2.775248
 O        -2.757404         0.096755        -2.369911
 H         1.950094        -0.755145         0.518091
 H         1.648993        -0.136724        -1.240379
 H         2.126577         0.987923         0.047860
 H        -2.894424         1.567119         0.371340
 H        -2.785784        -0.802374         1.663728
 H        -2.956705        -1.305457        -0.984586
 H        -5.249942        -0.628361        -1.859736
 H        -5.216568         0.731084        -0.715920
 H        -4.234293         0.469457        -3.770442
 H        -3.679967         1.896295        -2.809630
