19
Iteration:   614charge 0 multiplicity 1
 C         1.575157        -0.078745         0.418707
 C         0.168874         0.024436         0.172299
 C        -1.040118         0.164144         0.031589
 C        -2.462005         0.205969        -0.061395
 O        -3.260276        -0.470559         0.990934
 C        -3.006335        -0.193124        -1.442344
 C        -4.580255        -0.008773        -1.335602
 C        -4.468105         1.036325        -2.485779
 O        -2.926224         0.728499        -2.562293
 H         1.923916         0.839956         0.988655
 H         1.621934        -0.974280         1.102483
 H         2.188458        -0.335063        -0.375745
 H        -2.793440         1.333220         0.112186
 H        -2.742204        -1.156985         1.441058
 H        -2.718124        -1.232669        -1.595472
 H        -5.133831        -0.951576        -1.589587
 H        -4.999688         0.493513        -0.464044
 H        -5.076290         0.785058        -3.289282
 H        -4.627082         2.029578        -2.247969
