19
Iteration:  4309
 C         1.473837        -0.565671         0.331454
 C         0.133452         0.037909         0.082747
 C        -0.853963         0.653193        -0.212236
 C        -2.259938         1.073906        -0.405620
 O        -3.061404         1.573422         0.739359
 C        -3.135799        -0.091509        -1.000197
 C        -4.681464         0.152327        -1.058271
 C        -4.514978        -0.707286        -2.423520
 O        -3.077070        -0.750787        -2.291615
 H         1.622477        -1.359110         0.985791
 H         1.845664        -0.973338        -0.621791
 H         2.080035         0.381648         0.568680
 H        -2.178310         1.868097        -1.194618
 H        -3.381070         0.807851         1.238766
 H        -2.930260        -0.857719        -0.270124
 H        -5.136726        -0.344442        -0.206216
 H        -4.902579         1.213634        -1.068637
 H        -4.970138        -1.660850        -2.588391
 H        -4.857154        -0.090362        -3.265556
