19
Iteration:  1487
 C         1.528863         0.006580        -0.139041
 C         0.112087         0.026606         0.112190
 C        -1.105418         0.226777         0.110612
 C        -2.629775         0.407755         0.168418
 O        -3.364186        -0.159678         1.312635
 C        -3.269060        -0.236583        -1.116211
 C        -4.677823         0.246505        -1.511780
 C        -3.971097         0.779161        -2.780186
 O        -2.738908         0.104597        -2.367346
 H         1.960650        -0.713136         0.510814
 H         1.678796        -0.080443        -1.319387
 H         2.057209         0.951209         0.114241
 H        -2.885515         1.633077         0.338942
 H        -2.784280        -0.808172         1.766311
 H        -2.901848        -1.277016        -0.953105
 H        -5.205843        -0.660092        -1.855424
 H        -5.286560         0.800657        -0.753296
 H        -4.226291         0.465178        -3.762273
 H        -3.710077         1.835095        -2.801868
