19
Iteration:  1165charge 0 multiplicity 1
 C         1.392892        -0.443046         0.056909
 C         0.010805         0.024260         0.195512
 C        -1.081467         0.667324         0.095064
 C        -2.663765         0.532260         0.142735
 O        -3.086249        -0.301015         1.168186
 C        -3.069651        -0.082163        -1.207447
 C        -4.541834        -0.097221        -1.432032
 C        -4.190159         0.511142        -2.855763
 O        -2.847780         0.755070        -2.367170
 H         1.307046        -1.516419        -0.384214
 H         1.921510         0.207106        -0.582196
 H         1.829062        -0.642015         1.089632
 H        -3.156627         1.449090         0.385235
 H        -2.483344        -0.973207         1.377946
 H        -2.643020        -1.075359        -1.040793
 H        -5.013855        -1.068370        -1.310207
 H        -5.144459         0.668199        -0.918925
 H        -4.211368        -0.225549        -3.727223
 H        -4.831878         1.343225        -3.113228
