19
Iteration:  1466
 C         1.527092        -0.128280        -0.032290
 C         0.046413         0.212660         0.125985
 C        -1.159322         0.367069         0.099665
 C        -2.585350         0.421202         0.102293
 O        -3.218999        -0.197995         1.282756
 C        -3.303394        -0.336828        -1.086795
 C        -4.666401         0.212955        -1.470584
 C        -4.009222         0.842029        -2.705715
 O        -2.723571         0.085725        -2.484802
 H         1.932981        -0.594732         0.851527
 H         1.735778        -0.665207        -1.057606
 H         2.071736         0.796111        -0.064720
 H        -3.012663         1.534274         0.028589
 H        -2.997890        -1.117101         1.315482
 H        -3.105981        -1.398797        -0.872666
 H        -5.351546        -0.629537        -1.648133
 H        -5.150187         1.041399        -0.896023
 H        -4.448975         0.601146        -3.664698
 H        -3.881111         1.889752        -2.614949
