19
Iteration:  3570
 C         1.490181        -0.112603        -0.263601
 C         0.069819         0.031658         0.091317
 C        -1.161229         0.166983         0.076509
 C        -2.503292         0.752320        -0.097238
 O        -3.107786         1.181277         1.130800
 C        -3.363626        -0.222276        -0.777621
 C        -4.698559         0.286412        -1.450522
 C        -4.070160        -0.273245        -2.757945
 O        -2.813707        -0.630576        -2.097633
 H         1.877313        -1.166487        -0.136665
 H         1.670140         0.357975        -1.301014
 H         2.041115         0.363961         0.502979
 H        -2.242652         1.620183        -0.657726
 H        -2.667346         2.031339         1.457089
 H        -3.449346        -1.145424        -0.011332
 H        -5.723153        -0.026817        -1.283557
 H        -4.808318         1.349242        -1.537304
 H        -4.383811        -1.294334        -3.198788
 H        -3.823463         0.302103        -3.668356
