19
Iteration:   659charge 0 multiplicity 1
 C         1.511423        -0.332348         0.316761
 C         0.126499         0.026307         0.345009
 C        -1.000335         0.452714         0.106236
 C        -2.481435         0.413051        -0.012825
 O        -3.082229        -0.427106         1.059278
 C        -3.103180        -0.152325        -1.320480
 C        -4.622665        -0.153280        -1.528083
 C        -4.456621         0.892517        -2.539760
 O        -2.949192         0.780359        -2.551414
 H         2.051244         0.030882         1.265999
 H         1.700771        -1.369154         0.117715
 H         1.913314         0.243032        -0.466774
 H        -2.752125         1.502601         0.078277
 H        -2.745030        -1.307948         0.883381
 H        -2.582692        -1.143535        -1.493815
 H        -4.918887        -1.065443        -2.062000
 H        -5.209697        -0.067495        -0.617514
 H        -4.823508         0.747640        -3.529141
 H        -4.906945         1.790113        -2.178181
