19
Iteration:  4442charge 0 multiplicity 1
 C         1.502746        -0.291085         0.484183
 C         0.160243         0.100973         0.075034
 C        -0.897122         0.414395        -0.375247
 C        -2.315012         0.803496        -0.557696
 O        -2.966059         1.501010         0.557599
 C        -3.215629        -0.368078        -0.797961
 C        -4.652251         0.198079        -1.006150
 C        -4.485619        -0.301559        -2.380521
 O        -3.158970        -0.858076        -2.211774
 H         2.192408        -0.770838        -0.238983
 H         1.926917         0.713923         0.753890
 H         1.503432        -1.096451         1.287723
 H        -2.505191         1.299733        -1.533587
 H        -2.464053         2.290238         0.732501
 H        -2.965063        -1.165551        -0.182389
 H        -5.388656        -0.195806        -0.258318
 H        -4.724400         1.318788        -0.998793
 H        -5.276025        -1.001359        -2.689536
 H        -4.560729         0.405245        -3.193552
