19
Iteration:  4105charge 0 multiplicity 1
 C         1.434954        -0.355163        -0.254280
 C         0.033363        -0.082842         0.101993
 C        -1.041861         0.511532         0.042797
 C        -2.379108         0.860236        -0.294097
 O        -3.109354         1.568046         0.722635
 C        -3.362057        -0.227656        -0.691166
 C        -4.606270         0.345388        -1.323072
 C        -3.969667        -0.276565        -2.646312
 O        -3.045959        -1.072605        -1.811538
 H         2.012487         0.449103        -0.919689
 H         2.060181        -0.452890         0.729910
 H         1.498854        -1.337793        -0.685083
 H        -2.055458         1.628326        -1.125972
 H        -3.730232         0.932471         1.090539
 H        -3.424843        -0.712807         0.307180
 H        -5.413642        -0.240903        -0.883825
 H        -4.886650         1.401465        -1.312278
 H        -4.469512        -0.798744        -3.463600
 H        -3.514800         0.664732        -3.004114
