19
Iteration:  3474
 C         1.188637        -0.516206        -0.304661
 C        -0.043471         0.380463        -0.311706
 C        -1.163593         0.752189        -0.054311
 C        -2.613997         0.914438        -0.028529
 O        -3.114604         0.921599         1.378894
 C        -3.385614        -0.152933        -0.680659
 C        -4.529367         0.341412        -1.630609
 C        -3.803699        -0.402451        -2.787991
 O        -2.654325        -0.713951        -1.934321
 H         1.657054        -0.318107         0.639203
 H         0.813420        -1.504417        -0.500416
 H         1.977990        -0.012127        -1.029517
 H        -2.860044         1.973110        -0.379220
 H        -2.603158         0.150236         1.813613
 H        -3.565297        -0.962436        -0.061159
 H        -5.577870         0.094512        -1.362149
 H        -4.489622         1.438552        -1.544276
 H        -4.280032        -1.395148        -2.889626
 H        -3.642408         0.178726        -3.671122
