19
Iteration:  4717charge 0 multiplicity 1
 C         1.318127        -0.563643        -0.022043
 C        -0.023158        -0.011389        -0.007661
 C        -1.123188         0.526989        -0.218487
 C        -2.438020         1.132599        -0.372147
 O        -2.745757         1.707838         0.853813
 C        -3.445534         0.055510        -0.729528
 C        -4.778064         0.146220        -1.459778
 C        -4.089246        -0.861249        -2.503466
 O        -2.852098        -0.796361        -1.788796
 H         1.541449        -1.473415         0.575760
 H         1.508042        -0.689021        -1.116741
 H         2.144186         0.123839         0.293886
 H        -2.546399         1.941731        -1.130344
 H        -2.399116         1.174023         1.544379
 H        -3.531836        -0.631216         0.193203
 H        -5.751828        -0.156146        -1.013851
 H        -5.046798         1.071448        -1.971248
 H        -4.471702        -1.916785        -2.653104
 H        -4.014881        -0.346042        -3.465306
