19
Iteration:  4383charge 0 multiplicity 1
 C         1.621409        -0.362928         0.316471
 C         0.218029         0.063636         0.231659
 C        -0.934922         0.234014        -0.068650
 C        -2.288863         0.870189        -0.450889
 O        -2.838832         1.802124         0.556577
 C        -3.345924        -0.301498        -0.834876
 C        -4.864647        -0.118616        -1.023981
 C        -4.541196        -0.493027        -2.623550
 O        -3.134460        -0.553720        -2.205765
 H         1.718401        -1.358351        -0.113548
 H         2.337318         0.210412        -0.292756
 H         1.942407        -0.107851         1.381049
 H        -2.178770         1.296403        -1.458182
 H        -2.179681         2.463498         0.733197
 H        -3.143271        -1.274374        -0.293213
 H        -5.397415        -0.818182        -0.379953
 H        -5.245874         0.886861        -0.969556
 H        -5.015309        -1.453415        -2.832690
 H        -4.725667         0.259707        -3.420327
