19
Iteration:  3034charge 0 multiplicity 1
 C         1.510141        -0.209601         0.090381
 C         0.079016        -0.067326        -0.011646
 C        -1.070232         0.358454         0.065922
 C        -2.456431         0.708858        -0.096808
 O        -3.070064         0.980216         1.084512
 C        -3.209612        -0.299241        -0.972066
 C        -4.717285         0.002142        -1.237605
 C        -4.298354        -0.106213        -2.717089
 O        -2.829944        -0.060484        -2.403441
 H         2.083154         0.569641        -0.236183
 H         1.544719        -0.252587         1.121818
 H         1.934748        -1.128634        -0.316013
 H        -2.415466         1.733305        -0.602444
 H        -3.405944         0.128133         1.361184
 H        -2.894071        -1.289653        -0.729974
 H        -5.398264        -0.776589        -0.795064
 H        -5.174304         0.961208        -0.927781
 H        -4.428512        -1.159849        -3.138745
 H        -4.579738         0.634796        -3.559596
