19
Iteration:  2220charge 0 multiplicity 1
 C         1.437043        -0.137975        -0.243919
 C        -0.003443         0.069596        -0.070301
 C        -1.156407         0.262682         0.061102
 C        -2.639541         0.540174         0.185985
 O        -3.081298         0.107060         1.506838
 C        -3.446449        -0.197322        -0.925927
 C        -4.674010         0.434532        -1.649022
 C        -3.847216         0.338005        -2.949079
 O        -2.683075        -0.050592        -2.182198
 H         1.737282        -0.818636         0.666855
 H         1.661037        -0.782638        -1.192914
 H         2.046562         0.887003        -0.360653
 H        -2.665936         1.604317         0.089270
 H        -3.884330         0.537997         1.697543
 H        -3.461270        -1.237542        -0.532133
 H        -5.470874        -0.369673        -1.594824
 H        -5.015171         1.434359        -1.259412
 H        -4.310579        -0.346329        -3.573787
 H        -3.530209         1.219839        -3.491142
