19
Iteration:  3496charge 0 multiplicity 1
 C         1.268646        -0.411209        -0.296250
 C        -0.047868         0.255163        -0.302406
 C        -1.234265         0.581307        -0.193421
 C        -2.615992         0.873565         0.056503
 O        -3.195644         0.981556         1.354722
 C        -3.285102        -0.196741        -0.787890
 C        -4.491407         0.354753        -1.602265
 C        -3.860486        -0.362952        -2.710059
 O        -2.675527        -0.684735        -1.912717
 H         1.579756        -0.605203         0.685859
 H         1.074876        -1.250201        -0.923548
 H         2.108732         0.308200        -0.701906
 H        -2.812657         1.937872        -0.302524
 H        -2.662791         0.964337         2.123900
 H        -3.609831        -0.902792        -0.106139
 H        -5.436511         0.085913        -1.110428
 H        -4.411513         1.447208        -1.679987
 H        -4.292364        -1.348968        -2.977216
 H        -3.493185         0.248636        -3.507171
