19
Iteration:  2162
 C         1.366731        -0.244503        -0.186520
 C        -0.080273         0.101619        -0.117476
 C        -1.184164         0.488675         0.080044
 C        -2.665833         0.561411         0.242933
 O        -3.121392        -0.026741         1.496406
 C        -3.325532        -0.190926        -0.993302
 C        -4.621190         0.455514        -1.630171
 C        -3.931672         0.246196        -2.941961
 O        -2.625498        -0.000748        -2.266102
 H         1.933413         0.364719         0.672350
 H         1.614964        -1.324814        -0.090537
 H         1.838251         0.189433        -1.143670
 H        -3.001628         1.616593         0.258850
 H        -2.594974         0.472323         2.214718
 H        -3.263235        -1.303457        -0.859121
 H        -5.602205        -0.004097        -1.260538
 H        -4.644273         1.524964        -1.312988
 H        -4.324655        -0.531296        -3.530395
 H        -3.793135         1.166545        -3.535169
