19
Iteration:  2996
 C         1.449914        -0.368423        -0.067055
 C         0.091803         0.123900         0.174637
 C        -1.048391         0.506272         0.004481
 C        -2.456638         0.823816        -0.013497
 O        -3.186180         0.746534         1.224571
 C        -3.171183        -0.185658        -1.007840
 C        -4.728215         0.111144        -1.328371
 C        -4.263957        -0.217833        -2.819846
 O        -2.775835        -0.165675        -2.417718
 H         1.982870        -0.108427        -1.099075
 H         2.191481         0.076440         0.743427
 H         1.489424        -1.473637         0.085481
 H        -2.604502         1.796757        -0.418617
 H        -2.700916         1.031407         2.069588
 H        -3.182075        -1.188623        -0.475966
 H        -5.386338        -0.628861        -0.900158
 H        -4.884963         1.119790        -1.033371
 H        -4.535089        -1.206529        -3.120523
 H        -4.549353         0.540848        -3.542206
