19
Iteration:  2249charge 0 multiplicity 1
 C         1.424719        -0.092205        -0.245756
 C        -0.020376        -0.011122        -0.081088
 C        -1.140588         0.270573         0.205273
 C        -2.628464         0.569835         0.161275
 O        -3.195870         0.210566         1.494222
 C        -3.307074        -0.291421        -0.985078
 C        -4.571982         0.417457        -1.469736
 C        -3.918885         0.383739        -2.899591
 O        -2.686804        -0.147006        -2.397067
 H         1.712891        -0.960703         0.295917
 H         1.557379        -0.067126        -1.273284
 H         2.029560         0.645545         0.140341
 H        -2.561442         1.694159        -0.030232
 H        -4.187535         0.297853         1.436182
 H        -3.261828        -1.294649        -0.537873
 H        -5.486486        -0.155556        -1.280576
 H        -4.602623         1.425509        -1.031606
 H        -4.572417        -0.238149        -3.657536
 H        -3.637587         1.417972        -3.295877
