19
Iteration:  1688
 C         1.321941        -0.220598        -0.075744
 C        -0.116044         0.076142        -0.090441
 C        -1.222572         0.490341         0.070647
 C        -2.729907         0.502471         0.294575
 O        -2.950615        -0.280831         1.474079
 C        -3.294518        -0.120099        -1.014970
 C        -4.658038         0.200010        -1.684183
 C        -3.948019         0.514507        -2.957411
 O        -2.594938         0.370820        -2.237106
 H         1.942307         0.494166        -0.719010
 H         1.765873        -0.123539         1.023105
 H         1.351467        -1.255522        -0.451611
 H        -3.157225         1.427459         0.387787
 H        -2.695513        -1.142302         1.276156
 H        -3.029871        -1.191629        -1.115792
 H        -5.400518        -0.617947        -1.805624
 H        -5.255560         0.992823        -1.215384
 H        -4.129994        -0.157086        -3.834728
 H        -3.978855         1.584346        -3.296890
