19
Iteration:  1934charge 0 multiplicity 1
 C         1.415877        -0.365554         0.476961
 C         0.081851         0.044461         0.104115
 C        -1.010516         0.615034        -0.075537
 C        -2.414802         0.617456        -0.129612
 O        -3.046943         0.032014         1.040979
 C        -3.017054        -0.293828        -1.254179
 C        -4.656935        -0.025289        -1.263869
 C        -4.421925         0.617190        -2.602967
 O        -2.985719         0.235840        -2.599941
 H         1.381461        -1.428181         0.341911
 H         2.179115        -0.017440        -0.151663
 H         1.594840        -0.280568         1.591224
 H        -2.757072         1.680189        -0.333655
 H        -2.437404        -0.065867         1.796869
 H        -2.654367        -1.366514        -1.135663
 H        -5.181636        -0.990304        -1.343210
 H        -4.865569         0.446541        -0.316393
 H        -5.037400         0.297953        -3.511284
 H        -4.509317         1.691704        -2.545450
