19
Iteration:  2078
 C         1.526637        -0.161655        -0.115606
 C         0.094436         0.024046         0.087308
 C        -1.121641         0.187122         0.312924
 C        -2.517608         0.503499         0.073033
 O        -3.199956         0.275680         1.320045
 C        -3.288064        -0.209700        -1.087550
 C        -4.705454         0.193173        -1.473758
 C        -4.100869         0.270462        -2.875245
 O        -2.737131         0.270210        -2.373393
 H         1.980988         0.636042        -0.590195
 H         1.995719        -0.202034         0.851214
 H         1.723524        -1.130675        -0.645947
 H        -2.516401         1.656256        -0.110735
 H        -3.739796        -0.480880         1.305455
 H        -3.079944        -1.330651        -1.114839
 H        -5.467073        -0.571986        -1.367706
 H        -4.848662         1.145910        -0.952707
 H        -4.529006        -0.582840        -3.606622
 H        -4.262570         1.211500        -3.423397
