19
Iteration:   119
 C         1.612473        -0.052795         0.463895
 C         0.189771         0.022726         0.232051
 C        -0.996351        -0.038315        -0.009851
 C        -2.436102         0.132581        -0.093158
 O        -3.100277        -0.905018         0.767648
 C        -3.166612        -0.135757        -1.419127
 C        -4.684668         0.140154        -1.365561
 C        -4.435473         1.384136        -2.262442
 O        -3.042683         0.871916        -2.525758
 H         2.026671        -0.597750        -0.507985
 H         2.119820         0.957957         0.566043
 H         1.772313        -0.613423         1.439674
 H        -2.681480         1.176683         0.253879
 H        -2.364460        -1.559606         1.013450
 H        -2.854751        -1.168240        -1.684621
 H        -5.355719        -0.615951        -1.795986
 H        -4.924271         0.393607        -0.284877
 H        -4.982276         1.479113        -3.184619
 H        -4.561947         2.393619        -1.727464
