19
Iteration:   482charge 0 multiplicity 1
 C         1.506804         0.136751         0.096715
 C         0.078728         0.299990         0.163058
 C        -1.138911         0.152949         0.034450
 C        -2.574078         0.193743         0.130433
 O        -3.306542        -0.912903         1.025696
 C        -3.198020        -0.205068        -1.219228
 C        -4.641730         0.328212        -1.444963
 C        -4.026466         1.103826        -2.609304
 O        -2.748107         0.463788        -2.362105
 H         1.942414        -0.205093        -0.807329
 H         1.963570         1.102872         0.262025
 H         1.808681        -0.538183         0.788464
 H        -2.857720         1.024418         0.657604
 H        -2.976555        -1.780204         0.941933
 H        -3.088729        -1.294183        -1.215605
 H        -5.365212        -0.462685        -1.764441
 H        -5.236053         0.913109        -0.671624
 H        -4.473186         0.814321        -3.571038
 H        -4.011037         2.229879        -2.523672
