19
Iteration:   292
 C         1.427378         0.009697        -0.310675
 C        -0.000496         0.030432         0.173642
 C        -1.205335         0.157505         0.344381
 C        -2.646486         0.150477         0.314463
 O        -3.398137        -0.949303         0.990180
 C        -3.049370        -0.025292        -1.171163
 C        -4.497542         0.062589        -1.514069
 C        -4.058488         1.017290        -2.670254
 O        -2.640679         1.016019        -2.202497
 H         2.009536         0.512565         0.343788
 H         1.758977        -1.019592        -0.431330
 H         1.513531         0.655810        -1.260514
 H        -2.982895         0.985324         0.915385
 H        -3.311730        -1.750532         0.381803
 H        -2.410924        -0.889118        -1.423077
 H        -5.154713        -0.865631        -1.667057
 H        -4.992857         0.620523        -0.528650
 H        -3.966623         0.602797        -3.726393
 H        -4.570511         2.005571        -2.658102
