19
Iteration:  1496
 C         1.503101         0.043427        -0.193700
 C         0.048024         0.010490         0.078510
 C        -1.151719         0.150431         0.193579
 C        -2.547742         0.410462         0.164838
 O        -3.358953        -0.146699         1.293849
 C        -3.271630        -0.259726        -1.049150
 C        -4.700891         0.227465        -1.529149
 C        -3.946442         0.774745        -2.777959
 O        -2.668506         0.147266        -2.372077
 H         2.083591        -0.744115         0.259477
 H         1.846075         0.006248        -1.266179
 H         1.797486         1.008105         0.339659
 H        -2.715618         1.543568         0.047043
 H        -2.812285        -0.640959         1.941861
 H        -3.185357        -1.367764        -0.852650
 H        -5.289574        -0.677359        -1.733437
 H        -5.329244         0.980857        -1.070184
 H        -4.333112         0.410411        -3.719916
 H        -3.910037         1.929789        -2.799415
