19
Iteration:   892charge 0 multiplicity 1
 C         1.438488         0.085175         0.016671
 C         0.001334         0.053843         0.134333
 C        -1.211088         0.166207        -0.046646
 C        -2.706176         0.288352         0.087306
 O        -2.958828        -0.366424         1.319252
 C        -3.410846        -0.309870        -1.178489
 C        -4.795734         0.349121        -1.549306
 C        -3.910279         0.834504        -2.758684
 O        -2.684281         0.316412        -2.236288
 H         1.962103         0.589239        -0.862726
 H         1.891783         0.561727         0.902954
 H         1.883730        -1.058326        -0.033914
 H        -2.820864         1.413333         0.174861
 H        -2.672102        -1.258597         1.267120
 H        -3.429091        -1.399387        -1.114294
 H        -5.513099        -0.436128        -1.901302
 H        -5.274220         1.200904        -1.019013
 H        -3.910585         0.354125        -3.810087
 H        -3.786842         1.973521        -2.849865
