19
Iteration:   190
 C         1.552415        -0.042664         0.307679
 C         0.119149        -0.068540         0.114731
 C        -1.085830        -0.051092         0.026025
 C        -2.561906         0.145958         0.023888
 O        -2.855469        -0.898974         0.977167
 C        -3.283955        -0.125965        -1.345098
 C        -4.699008         0.112727        -1.537288
 C        -4.349701         1.290593        -2.554000
 O        -2.910493         1.004744        -2.218531
 H         1.948591         0.683641        -0.355301
 H         1.825251         0.180279         1.303445
 H         1.960746        -0.978002         0.084825
 H        -2.776389         1.110166         0.423261
 H        -3.839404        -1.051825         1.047160
 H        -2.918387        -1.063428        -1.775580
 H        -5.071066        -0.766077        -2.066556
 H        -5.198849         0.454418        -0.605200
 H        -4.555405         1.016271        -3.629833
 H        -4.495833         2.340669        -2.465574
