19
Iteration:  2961
 C         1.385509        -0.443589        -0.100161
 C         0.107097         0.265081        -0.025035
 C        -1.063273         0.638124         0.075822
 C        -2.474384         0.877657         0.051582
 O        -3.064296         0.552899         1.290882
 C        -3.282009        -0.156874        -0.953921
 C        -4.688383         0.179888        -1.412792
 C        -4.200452        -0.238891        -2.873911
 O        -2.726177        -0.217468        -2.281716
 H         1.564918        -1.132603        -1.025341
 H         2.258878         0.239860         0.141607
 H         1.334248        -1.222805         0.775973
 H        -2.718269         1.833899        -0.357637
 H        -3.727488         1.285351         1.514655
 H        -3.280731        -1.224669        -0.538865
 H        -5.622375        -0.269393        -1.086437
 H        -4.918032         1.225797        -1.274731
 H        -4.498204        -1.215819        -3.245151
 H        -4.232096         0.424731        -3.650964
