19
Iteration:   935
 C         1.471578         0.027273         0.056005
 C         0.002173         0.267604        -0.036575
 C        -1.211449         0.291445         0.077885
 C        -2.661961         0.319231         0.117531
 O        -3.084183        -0.475689         1.359201
 C        -3.362489        -0.268036        -1.134684
 C        -4.700187         0.410203        -1.541353
 C        -3.823068         0.966033        -2.687591
 O        -2.792304        -0.041404        -2.464606
 H         2.063544         0.949197        -0.265242
 H         1.647527        -0.192164         1.100410
 H         1.824381        -0.751101        -0.763714
 H        -3.218127         1.280675         0.218823
 H        -2.273561        -0.862857         1.595036
 H        -3.349771        -1.399000        -0.982269
 H        -5.417902        -0.368283        -1.932176
 H        -5.112417         1.100648        -0.758152
 H        -4.390192         1.065647        -3.694668
 H        -3.419041         2.020601        -2.514400
