19
Iteration:  2539charge 0 multiplicity 1
 C         1.641588        -0.260881         0.272899
 C         0.145884        -0.054868         0.214754
 C        -1.048506         0.093055        -0.032293
 C        -2.411421         0.586873        -0.156775
 O        -2.989216         0.752857         1.143006
 C        -3.246642        -0.185042        -1.132198
 C        -4.838651        -0.027654        -1.313212
 C        -4.339087         0.023348        -2.775747
 O        -2.999284         0.335698        -2.417141
 H         1.869723        -0.544433         1.261602
 H         2.131836        -1.002121        -0.264447
 H         2.128640         0.704459        -0.039927
 H        -2.383017         1.563943        -0.577288
 H        -2.850159        -0.059353         1.582297
 H        -2.987331        -1.244486        -1.281246
 H        -5.617675        -0.823110        -1.174577
 H        -5.235267         0.952097        -0.874629
 H        -4.299033        -1.050722        -3.193749
 H        -4.872246         0.772789        -3.451611
