19
Iteration:  2966
 C         1.420243        -0.473829        -0.107515
 C         0.107848         0.279084         0.006820
 C        -1.046773         0.649150         0.138524
 C        -2.494173         0.850110         0.043792
 O        -3.061834         0.576559         1.256715
 C        -3.248001        -0.158876        -0.933846
 C        -4.693084         0.170547        -1.438240
 C        -4.183126        -0.261518        -2.874008
 O        -2.795678        -0.205537        -2.306831
 H         1.723260        -1.052756        -0.969191
 H         2.203596         0.224014         0.242392
 H         1.413919        -1.261981         0.576032
 H        -2.807276         1.836938        -0.437185
 H        -3.537242         1.322819         1.635800
 H        -3.362071        -1.137923        -0.491313
 H        -5.574844        -0.343603        -0.983266
 H        -4.958707         1.244620        -1.218131
 H        -4.484697        -1.248230        -3.312245
 H        -4.330268         0.590631        -3.729891
