19
Iteration:  1933
 C         1.410336        -0.363809         0.483260
 C         0.084786         0.042412         0.103784
 C        -1.014110         0.616022        -0.087552
 C        -2.410530         0.615228        -0.123459
 O        -3.047104         0.034393         1.045000
 C        -3.013114        -0.293887        -1.260162
 C        -4.656829        -0.023839        -1.267389
 C        -4.422953         0.614045        -2.599856
 O        -2.988173         0.237987        -2.600203
 H         1.394014        -1.436541         0.365083
 H         2.149009        -0.025964        -0.149534
 H         1.605011        -0.273371         1.555689
 H        -2.777186         1.711382        -0.322401
 H        -2.409966        -0.106167         1.816037
 H        -2.656673        -1.368531        -1.150040
 H        -5.173583        -0.999488        -1.324402
 H        -4.882086         0.435384        -0.309113
 H        -5.048046         0.295447        -3.523312
 H        -4.459308         1.702842        -2.550072
