19
Iteration:  1674charge 0 multiplicity 1
 C         1.302571        -0.285068        -0.148433
 C        -0.102965         0.256629        -0.039753
 C        -1.252229         0.525956         0.027301
 C        -2.702148         0.452644         0.327905
 O        -3.045380        -0.331901         1.514857
 C        -3.282156        -0.128279        -1.031934
 C        -4.670536         0.233721        -1.651491
 C        -3.849972         0.525647        -2.937141
 O        -2.585387         0.337611        -2.306807
 H         1.719946         0.175854        -1.038376
 H         1.932260        -0.054120         0.803862
 H         1.495445        -1.295130        -0.292070
 H        -3.106265         1.492729         0.552188
 H        -2.650613        -1.288268         1.435760
 H        -3.256287        -1.242985        -0.759765
 H        -5.326528        -0.664761        -1.604604
 H        -5.157788         1.147005        -1.287764
 H        -3.934634        -0.205863        -3.776260
 H        -4.019930         1.634007        -3.373302
