19
Iteration:  1752
 C         1.535171        -0.172872         0.091576
 C         0.104252         0.109776         0.090804
 C        -1.107034         0.131023         0.169853
 C        -2.494121         0.368056         0.105132
 O        -3.277526        -0.107129         1.212109
 C        -3.174160        -0.182414        -1.180533
 C        -4.678509         0.088203        -1.437010
 C        -4.216056         0.582667        -2.824864
 O        -2.786600         0.514955        -2.422526
 H         2.226864         0.585569         0.401765
 H         1.907522        -1.046134         0.704769
 H         1.822367        -0.416901        -0.849701
 H        -2.612707         1.520500        -0.047702
 H        -2.641266         0.027427         1.938350
 H        -2.956672        -1.283536        -1.249196
 H        -5.366360        -0.783140        -1.406107
 H        -5.052440         1.014889        -1.015902
 H        -4.548052        -0.130184        -3.595636
 H        -4.484303         1.653651        -3.161235
