19
Iteration:  3848charge 0 multiplicity 1
 C         1.464757        -0.338161         0.329724
 C         0.123031        -0.067895        -0.022109
 C        -1.030649         0.222908         0.137910
 C        -2.243065         0.877713        -0.338043
 O        -2.898593         1.617975         0.699054
 C        -3.159579        -0.237130        -0.977108
 C        -4.699196        -0.080542        -1.020919
 C        -4.472701        -0.552581        -2.491658
 O        -3.078178        -0.247545        -2.429978
 H         1.761987        -0.137586         1.351016
 H         1.796900        -1.311627        -0.017822
 H         2.132979         0.406595        -0.293930
 H        -2.056790         1.497101        -1.210883
 H        -3.723061         1.271629         1.022629
 H        -3.004239        -1.237409        -0.534062
 H        -5.436976        -0.751877        -0.619655
 H        -5.099389         0.930624        -0.937469
 H        -4.703942        -1.625011        -2.667246
 H        -4.914710        -0.070849        -3.294446
