19
Iteration:  4910
 C         1.586936        -0.500663         0.178973
 C         0.166014        -0.004576        -0.066640
 C        -1.004428         0.376403         0.014556
 C        -2.314425         0.836705        -0.413198
 O        -2.895112         1.932991         0.422641
 C        -3.351270        -0.190354        -0.671656
 C        -4.787616         0.190481        -1.157539
 C        -4.434811        -0.605887        -2.445783
 O        -2.982729        -0.792624        -1.980226
 H         2.195186         0.072235        -0.549748
 H         1.903366        -0.098169         1.069364
 H         1.558504        -1.501976        -0.164963
 H        -2.048526         1.376987        -1.322866
 H        -3.478280         1.452892         1.076736
 H        -3.407233        -1.096435         0.052273
 H        -5.587563        -0.411314        -0.707604
 H        -5.130582         1.169994        -1.325643
 H        -4.902231        -1.555401        -2.545358
 H        -4.464105        -0.095618        -3.401556
