19
Iteration:  2838charge 0 multiplicity 1
 C         1.403799        -0.240726        -0.277219
 C         0.021328         0.073359        -0.056998
 C        -1.129509         0.347615         0.242569
 C        -2.561824         0.656940         0.012129
 O        -3.252385         0.689551         1.268301
 C        -3.329569        -0.355510        -0.883373
 C        -4.621729         0.362846        -1.499427
 C        -3.929907         0.064024        -2.771384
 O        -2.715752        -0.319548        -2.224460
 H         1.975790        -0.621722         0.586472
 H         1.528969        -1.088194        -0.949425
 H         1.861793         0.719784        -0.827031
 H        -2.629763         1.629710        -0.440597
 H        -2.706915         1.192425         1.896396
 H        -3.440886        -1.367579        -0.415830
 H        -5.537566        -0.172408        -1.219283
 H        -4.692049         1.474846        -1.279043
 H        -4.454371        -0.710583        -3.340839
 H        -3.740085         0.875600        -3.364291
