19
Iteration:  3091
 C         1.547600        -0.196842         0.321968
 C         0.163733         0.098366         0.229653
 C        -0.993609         0.310755        -0.001309
 C        -2.341410         0.648645        -0.321799
 O        -2.962522         1.003244         0.988706
 C        -3.223290        -0.323767        -1.048059
 C        -4.781101        -0.083363        -1.179917
 C        -4.503499         0.058446        -2.726150
 O        -2.985418        -0.191778        -2.434745
 H         2.100085         0.431443         0.896403
 H         1.768542        -1.147872         0.617476
 H         1.924698        -0.140501        -0.714832
 H        -2.239376         1.651672        -0.908166
 H        -2.759739         0.217927         1.565593
 H        -3.062307        -1.316232        -0.810767
 H        -5.184750        -1.088111        -0.926384
 H        -5.299251         0.777613        -0.759377
 H        -4.875488        -0.804694        -3.409358
 H        -4.716792         1.065576        -3.182456
