19
Iteration:  4755charge 0 multiplicity 1
 C         1.207400        -0.655269         0.046092
 C        -0.090801         0.119379        -0.093666
 C        -1.109814         0.680653        -0.376332
 C        -2.509680         1.142997        -0.318867
 O        -2.729763         1.798604         0.914249
 C        -3.349481        -0.117986        -0.675408
 C        -4.649568         0.129544        -1.404932
 C        -4.097299        -0.798684        -2.541102
 O        -2.867196        -0.939675        -1.865329
 H         1.012523        -1.838831        -0.046461
 H         1.862041        -0.373237        -0.863636
 H         1.836610        -0.214766         0.858841
 H        -2.634322         1.965640        -1.059452
 H        -2.403667         1.228460         1.624219
 H        -3.266638        -0.783860         0.277754
 H        -5.521795        -0.042428        -0.759972
 H        -4.598832         1.202886        -1.749553
 H        -4.625382        -1.755503        -2.591936
 H        -4.003387        -0.356620        -3.568675
