19
Iteration:  2533
 C         1.634606        -0.252459         0.272976
 C         0.150300        -0.043895         0.171267
 C        -1.054129         0.106396         0.026106
 C        -2.379327         0.593882        -0.192735
 O        -3.006999         0.725275         1.150069
 C        -3.196265        -0.223011        -1.155706
 C        -4.874347         0.001875        -1.341971
 C        -4.324015        -0.000340        -2.756541
 O        -3.034726         0.365503        -2.392458
 H         1.932955        -0.387464         1.382338
 H         1.970038        -1.258436        -0.255526
 H         2.223056         0.618414        -0.005661
 H        -2.383211         1.585290        -0.822525
 H        -2.630910        -0.023318         1.723383
 H        -3.060768        -1.341626        -1.054331
 H        -5.527302        -0.816189        -1.073172
 H        -5.302035         0.922162        -1.022730
 H        -4.336943        -0.912306        -3.337381
 H        -4.793934         0.756502        -3.408043
