19
Iteration:  3765charge 0 multiplicity 1
 C         1.431571        -0.361298         0.537276
 C         0.112554         0.077444         0.180739
 C        -0.939997         0.541048        -0.263408
 C        -2.328962         0.970938        -0.523810
 O        -2.669016         1.265228         0.878738
 C        -3.076102        -0.294703        -1.082852
 C        -4.689540        -0.123388        -0.952885
 C        -4.653578        -0.269952        -2.537062
 O        -3.164926        -0.523568        -2.498255
 H         2.030151         0.576092         0.686082
 H         1.415613        -0.820898         1.573107
 H         1.848021        -1.073224        -0.079613
 H        -2.333435         1.856149        -1.209627
 H        -3.598498         1.676761         0.832135
 H        -2.774937        -1.146055        -0.510252
 H        -5.353100        -0.965154        -0.698015
 H        -5.074501         0.821280        -0.548573
 H        -5.207113        -1.150353        -2.768110
 H        -4.957418         0.648406        -3.151640
