19
Iteration:  2107
 C         1.492528        -0.229755        -0.165345
 C         0.137559         0.186859         0.157678
 C        -1.092793         0.357549         0.131787
 C        -2.556911         0.534652         0.151212
 O        -3.324049         0.136425         1.352235
 C        -3.293801        -0.138395        -1.022614
 C        -4.613675         0.324503        -1.471277
 C        -4.067585         0.217253        -2.915638
 O        -2.710835         0.098991        -2.360870
 H         2.203385         0.654706        -0.449017
 H         1.934464        -0.967389         0.539970
 H         1.473303        -0.880571        -1.098862
 H        -2.669390         1.569144         0.266806
 H        -3.538421        -0.829570         1.215238
 H        -3.167512        -1.195580        -0.987669
 H        -5.522751        -0.347756        -1.298725
 H        -4.760648         1.305548        -0.965022
 H        -4.524171        -0.496774        -3.462572
 H        -4.023822         1.155924        -3.466367
