19
Iteration:  4534
 C         1.444165        -0.233942         0.427280
 C         0.070823        -0.049131        -0.003676
 C        -0.979307         0.342297        -0.436204
 C        -2.361813         0.903822        -0.569393
 O        -2.614129         1.614961         0.657683
 C        -3.402259        -0.200557        -0.729717
 C        -4.847673         0.120249        -1.194667
 C        -4.373698        -0.451884        -2.526034
 O        -3.080095        -0.834141        -1.964102
 H         2.031234         0.717725         0.055493
 H         1.434777        -0.330491         1.506386
 H         1.982854        -0.963300        -0.086499
 H        -2.468100         1.787573        -1.230551
 H        -2.354098         1.064520         1.395670
 H        -3.196209        -0.875696         0.119842
 H        -5.738625        -0.353958        -0.749958
 H        -5.013361         1.158697        -0.938115
 H        -4.914029        -1.366894        -2.896256
 H        -4.344601         0.264907        -3.368292
