19
Iteration:  1333
 C         1.667750        -0.169887         0.419531
 C         0.192739         0.007126         0.152803
 C        -1.014106         0.009794         0.097613
 C        -2.425893         0.366021        -0.151001
 O        -3.203725        -0.058375         0.996278
 C        -3.165583        -0.265836        -1.347415
 C        -4.719635        -0.056993        -1.294277
 C        -4.408423         0.768911        -2.584717
 O        -2.964788         0.645004        -2.523884
 H         2.123369         0.774091         0.435351
 H         1.798191        -0.569941         1.503934
 H         2.039570        -0.758178        -0.469808
 H        -2.543400         1.408686        -0.204128
 H        -2.813301         0.231791         1.802301
 H        -2.959506        -1.324906        -1.530411
 H        -5.306193        -0.981533        -1.446148
 H        -5.060591         0.535287        -0.443171
 H        -4.690908         0.296825        -3.527853
 H        -4.509804         1.853203        -2.673469
