19
Iteration:  2753
 C         1.514671        -0.281695        -0.129265
 C         0.072618         0.044170         0.058224
 C        -1.141077         0.303588         0.006624
 C        -2.585618         0.632442        -0.002021
 O        -3.049641         0.825663         1.356925
 C        -3.351131        -0.352769        -0.964815
 C        -4.739466         0.141974        -1.404097
 C        -4.010482         0.354675        -2.815748
 O        -2.766355        -0.368466        -2.317200
 H         2.036805         0.685679        -0.269876
 H         1.844812        -0.908950         0.682629
 H         1.747866        -0.910158        -0.922396
 H        -2.802988         1.652469        -0.428400
 H        -3.950346         0.500401         1.430639
 H        -3.297934        -1.352411        -0.498572
 H        -5.556861        -0.534925        -1.303695
 H        -5.015420         0.986421        -0.835036
 H        -4.483988        -0.193025        -3.717327
 H        -3.662948         1.410732        -3.218794
