19
Iteration:  1128
 C         1.430251        -0.319642        -0.098637
 C         0.084342         0.252487         0.320370
 C        -1.122844         0.274174         0.339387
 C        -2.536667         0.422657         0.140358
 O        -3.230849        -0.215945         1.193809
 C        -3.093607        -0.105751        -1.158681
 C        -4.557900        -0.042419        -1.487887
 C        -4.230006         0.618180        -2.858919
 O        -2.805307         0.617493        -2.455730
 H         1.207527        -1.471865        -0.169200
 H         1.628246        -0.045001        -1.208970
 H         2.343462        -0.073911         0.416363
 H        -2.953668         1.500704         0.228535
 H        -2.688544        -0.940826         1.562115
 H        -2.730250        -1.083343        -1.372759
 H        -5.127127        -1.014866        -1.388157
 H        -5.080388         0.733493        -0.857323
 H        -4.242003        -0.096146        -3.649382
 H        -4.554254         1.645310        -3.181469
