19
Iteration:   991
 C         1.466865         0.161957        -0.056068
 C         0.042547         0.178985         0.109722
 C        -1.162591         0.139289        -0.051811
 C        -2.640287         0.339244         0.130222
 O        -3.251929        -0.310073         1.208528
 C        -3.373695        -0.352548        -1.110594
 C        -4.658506         0.350078        -1.481909
 C        -3.801467         0.972679        -2.595999
 O        -2.723566        -0.033930        -2.399595
 H         2.022164         0.717891         0.664747
 H         1.794544        -0.853138         0.142482
 H         1.745808         0.273264        -1.198701
 H        -3.018973         1.376860        -0.000304
 H        -2.804123        -1.009435         1.734495
 H        -3.436322        -1.413837        -0.853341
 H        -5.478793        -0.336782        -1.786531
 H        -5.025817         1.075566        -0.735738
 H        -4.348173         1.047574        -3.592953
 H        -3.410233         1.887920        -2.111149
