19
Iteration:  3654charge 0 multiplicity 1
 C         1.540472        -0.246505         0.291165
 C         0.150730         0.155740         0.158797
 C        -0.910606         0.594945        -0.156377
 C        -2.283923         0.862791        -0.401270
 O        -2.849102         1.201313         0.939227
 C        -3.339792        -0.312439        -0.899997
 C        -4.833406         0.036123        -1.179500
 C        -4.386014        -0.179675        -2.659385
 O        -3.124497        -0.742125        -2.301744
 H         1.806390        -0.526732        -0.772984
 H         2.122892         0.661042         0.542281
 H         1.798857        -0.953476         1.073807
 H        -2.457774         1.816435        -0.932700
 H        -2.965431         0.310948         1.208105
 H        -3.217649        -1.058873        -0.171612
 H        -5.557720        -0.749197        -0.923325
 H        -5.157937         1.063204        -1.099135
 H        -4.878065        -0.896192        -3.285641
 H        -4.253303         0.820076        -3.155139
