19
Iteration:   300charge 0 multiplicity 1
 C         1.373382         0.049149        -0.365415
 C         0.034808        -0.030119         0.209707
 C        -1.156887         0.172324         0.419916
 C        -2.650046         0.126915         0.321199
 O        -3.374255        -0.951245         1.012826
 C        -3.037658        -0.007723        -1.176291
 C        -4.506810         0.075569        -1.528246
 C        -4.074991         1.028450        -2.726193
 O        -2.638266         0.987166        -2.162572
 H         2.091243         0.414400         0.509559
 H         1.742302        -0.922410        -0.633110
 H         1.425936         0.758701        -1.234555
 H        -2.998670         1.136132         0.578080
 H        -3.550119        -1.588387         0.213512
 H        -2.593765        -1.013717        -1.441799
 H        -4.949850        -0.910005        -1.575505
 H        -5.257274         0.646711        -0.917168
 H        -4.094844         0.681927        -3.772468
 H        -4.485202         2.001787        -2.635103
