19
Iteration:  3277
 C         1.530147        -0.282459         0.134159
 C         0.148835         0.105151        -0.052289
 C        -1.028645         0.346235         0.093081
 C        -2.397230         0.727487        -0.162363
 O        -3.039432         0.968954         1.035114
 C        -3.290653        -0.293664        -0.896626
 C        -4.685531         0.129640        -1.235399
 C        -4.273036        -0.033281        -2.771313
 O        -2.957762        -0.420117        -2.357400
 H         1.876150        -0.891966        -0.661853
 H         2.173579         0.592940         0.188386
 H         1.449275        -0.831929         1.167475
 H        -2.354216         1.656651        -0.691807
 H        -3.666661         1.710043         0.989202
 H        -3.154337        -1.218442        -0.304142
 H        -5.400030        -0.605770        -0.896109
 H        -4.876000         1.075557        -0.726460
 H        -4.847544        -0.762836        -3.295203
 H        -4.376961         0.864622        -3.397933
