19
Iteration:  3242charge 0 multiplicity 1
 C         1.546996        -0.220313         0.400795
 C         0.155906        -0.052666        -0.028091
 C        -0.974326         0.340748        -0.374245
 C        -2.438777         0.793813        -0.220649
 O        -2.860270         0.993102         1.130740
 C        -3.329760        -0.298448        -0.912840
 C        -4.789445        -0.041441        -1.227894
 C        -4.334709         0.065741        -2.732128
 O        -2.989516        -0.337719        -2.363599
 H         1.912117        -1.264647         0.255871
 H         2.253160         0.526160        -0.117775
 H         1.634768        -0.108222         1.602952
 H        -2.471485         1.725613        -0.774119
 H        -3.823831         1.178491         1.009003
 H        -3.448079        -1.250988        -0.307577
 H        -5.497801        -0.796981        -0.905716
 H        -5.134644         0.875566        -0.794428
 H        -4.628407        -0.691628        -3.359169
 H        -4.310470         1.034990        -3.222500
