19
Iteration:  1089
 C         1.537432        -0.068217        -0.093036
 C         0.037055        -0.063325        -0.004450
 C        -1.153256         0.182695         0.253399
 C        -2.624172         0.344053         0.137163
 O        -3.413736        -0.105226         1.187574
 C        -3.130084        -0.224216        -1.157450
 C        -4.582058         0.052496        -1.426164
 C        -4.057641         0.687387        -2.773037
 O        -2.696057         0.547749        -2.298940
 H         1.976109        -0.909374         0.387133
 H         1.734600        -0.129714        -1.115028
 H         1.950571         0.967630         0.158229
 H        -2.586449         1.393060         0.016118
 H        -2.931611        -0.932228         1.488136
 H        -2.709114        -1.291609        -1.093439
 H        -5.236631        -0.807942        -1.551096
 H        -5.055370         0.561533        -0.578651
 H        -4.424653         0.190397        -3.721407
 H        -4.385561         1.711299        -2.907048
