19
Iteration:  3847
 C         1.466613        -0.340237         0.336235
 C         0.126502        -0.062688        -0.029692
 C        -1.028588         0.228414         0.145210
 C        -2.247515         0.872684        -0.335079
 O        -2.896420         1.612410         0.691345
 C        -3.157264        -0.241798        -0.977551
 C        -4.697675        -0.078784        -1.022579
 C        -4.480629        -0.550714        -2.498823
 O        -3.076023        -0.244468        -2.421094
 H         1.751157        -0.107103         1.349011
 H         1.796457        -1.329379        -0.024120
 H         2.145002         0.385727        -0.298017
 H        -2.028878         1.512974        -1.219938
 H        -3.751884         1.252749         1.009680
 H        -2.993754        -1.220758        -0.538986
 H        -5.425119        -0.764546        -0.612303
 H        -5.100282         0.934758        -0.938540
 H        -4.732710        -1.605889        -2.648493
 H        -4.962184        -0.078001        -3.297910
