19
Iteration:  1117
 C         1.450617        -0.264335        -0.115802
 C         0.128123         0.207095         0.245036
 C        -1.083246         0.269875         0.291986
 C        -2.564601         0.395356         0.190534
 O        -3.380340        -0.209802         1.267946
 C        -3.069844        -0.162079        -1.250225
 C        -4.628336         0.009634        -1.460793
 C        -4.153341         0.579711        -2.835064
 O        -2.760899         0.621006        -2.458372
 H         1.678523        -1.430356         0.010941
 H         1.481431        -0.008473        -1.247761
 H         2.297431         0.158606         0.419214
 H        -2.592989         1.548358         0.126123
 H        -2.765441        -0.954824         1.624389
 H        -2.602220        -1.126551        -1.313381
 H        -5.300310        -0.900126        -1.483823
 H        -4.957662         0.754303        -0.688833
 H        -4.459057         0.102842        -3.755450
 H        -4.569459         1.624245        -2.893649
