19
Iteration:  2289
 C         1.530713        -0.131343        -0.291224
 C         0.125090         0.069211         0.142235
 C        -1.108989         0.137068         0.230884
 C        -2.517731         0.552037         0.061379
 O        -3.373159         0.328918         1.228369
 C        -3.245709        -0.293482        -0.973208
 C        -4.629266         0.291383        -1.348558
 C        -4.000715         0.439034        -2.773142
 O        -2.741049        -0.130506        -2.338334
 H         1.622326        -1.216791        -0.626613
 H         1.923763         0.575617        -1.244944
 H         2.236231         0.229766         0.604427
 H        -2.705981         1.533047        -0.286457
 H        -4.187303         0.794622         0.989934
 H        -3.347457        -1.383654        -0.804993
 H        -5.557674        -0.295957        -1.404496
 H        -4.807869         1.275361        -0.929143
 H        -4.437708        -0.186548        -3.595533
 H        -3.839181         1.478872        -2.975390
