19
Iteration:  1186charge 0 multiplicity 1
 C         1.302390        -0.463459         0.210872
 C        -0.031024         0.077781        -0.071133
 C        -1.130201         0.539982         0.065746
 C        -2.536334         0.563681         0.099706
 O        -3.035466        -0.293691         1.238927
 C        -3.038646        -0.040149        -1.200284
 C        -4.587188        -0.175774        -1.452575
 C        -4.187438         0.495957        -2.799539
 O        -2.856059         0.846705        -2.351407
 H         1.442161        -1.426402        -0.478991
 H         1.944082         0.352506         0.003151
 H         1.376589        -0.803286         1.297058
 H        -2.987013         1.544635         0.297689
 H        -2.416835        -1.067767         1.359838
 H        -2.433359        -0.954914        -1.294915
 H        -5.171020        -1.107178        -1.401827
 H        -5.173119         0.569444        -0.841961
 H        -4.146799        -0.377268        -3.520691
 H        -4.758630         1.230979        -3.322147
