19
Iteration:  3344charge 0 multiplicity 1
 C         1.453162        -0.314690        -0.297093
 C         0.054239         0.014316         0.000024
 C        -1.091828         0.347199         0.304578
 C        -2.453653         0.861190        -0.080772
 O        -3.227754         0.956626         1.140095
 C        -3.367208        -0.103659        -0.842446
 C        -4.645803         0.232506        -1.372598
 C        -4.057999        -0.265599        -2.787812
 O        -2.737193        -0.458485        -2.159648
 H         1.830878         0.320406        -1.098402
 H         2.194674        -0.059403         0.428365
 H         1.574469        -1.461479        -0.536293
 H        -2.327116         1.760579        -0.677315
 H        -3.342525         1.876501         1.271738
 H        -3.457157        -1.060560        -0.321860
 H        -5.539968        -0.295028        -0.991362
 H        -4.849993         1.332740        -1.348084
 H        -4.450491        -1.181098        -3.194148
 H        -3.975142         0.301130        -3.757589
