19
Iteration:  4812charge 0 multiplicity 1
 C         1.295974        -0.714185         0.075793
 C         0.118741         0.109373        -0.207136
 C        -0.982519         0.668023        -0.274556
 C        -2.393263         1.102731        -0.416185
 O        -3.076505         1.672932         0.760815
 C        -3.265434        -0.095346        -0.651624
 C        -4.730718         0.155137        -1.271209
 C        -4.191183        -0.649966        -2.448249
 O        -2.832699        -0.927165        -1.827744
 H         1.179801        -1.543377        -0.783695
 H         2.234393        -0.157490        -0.151059
 H         1.310153        -1.366809         1.046791
 H        -2.321902         1.870404        -1.186422
 H        -2.907726         2.680656         0.812529
 H        -3.208274        -0.753531         0.260777
 H        -5.495432        -0.123281        -0.563160
 H        -4.892721         1.183086        -1.430845
 H        -4.621322        -1.629920        -2.618108
 H        -4.035703        -0.227029        -3.465018
