19
Iteration:   664charge 0 multiplicity 1
 C         1.539440        -0.368020         0.321010
 C         0.109931         0.052673         0.326141
 C        -1.009544         0.475737         0.086742
 C        -2.475208         0.383019         0.026130
 O        -3.086290        -0.412809         1.127757
 C        -3.108005        -0.129507        -1.379870
 C        -4.614904        -0.188866        -1.548646
 C        -4.401592         0.897943        -2.576845
 O        -2.972337         0.804050        -2.544158
 H         2.044458        -0.131371         1.219250
 H         1.626118        -1.464550         0.080190
 H         1.901080         0.417666        -0.462411
 H        -2.841180         1.392530         0.186140
 H        -2.587946        -1.283918         0.909826
 H        -2.655737        -1.157488        -1.373656
 H        -4.905250        -1.109837        -2.064685
 H        -5.267929        -0.115118        -0.658924
 H        -5.004339         0.654139        -3.547369
 H        -4.942610         1.837514        -2.155633
