19
Iteration:  3627
 C         1.656641        -0.240849         0.134658
 C         0.196234         0.186359         0.019993
 C        -1.017876         0.343682        -0.078738
 C        -2.406809         0.764265        -0.237145
 O        -3.186465         1.239426         0.912208
 C        -3.257719        -0.282158        -0.900978
 C        -4.656935         0.191544        -1.214536
 C        -4.322013        -0.145276        -2.677052
 O        -3.031524        -0.749696        -2.195268
 H         1.839242        -0.810611        -0.728859
 H         2.220698         0.672524        -0.118151
 H         1.998710        -0.492528         1.174154
 H        -2.436939         1.692817        -0.831693
 H        -2.875410         0.704974         1.627958
 H        -3.328841        -1.130096        -0.027904
 H        -5.483136        -0.437728        -0.868954
 H        -4.834688         1.288234        -1.152871
 H        -4.881703        -1.062574        -3.208221
 H        -4.125797         0.690553        -3.365294
