19
Iteration:  2397
 C         1.385513        -0.410379         0.193225
 C         0.085490         0.154935        -0.038221
 C        -1.056296         0.497083        -0.050546
 C        -2.538487         0.643127        -0.045096
 O        -2.889968         0.454697         1.277768
 C        -3.207543        -0.242587        -1.055007
 C        -4.730570        -0.092553        -1.392393
 C        -4.220293         0.355179        -2.733467
 O        -2.842424         0.059771        -2.399389
 H         2.203874        -0.124974        -0.485502
 H         1.723748        -0.148816         1.142948
 H         1.164380        -1.512026         0.201568
 H        -2.775211         1.682867        -0.556231
 H        -3.789410         0.229244         1.364901
 H        -2.897956        -1.274922        -0.807238
 H        -5.284436        -1.041856        -1.598076
 H        -5.411995         0.512547        -0.767623
 H        -4.714789        -0.119986        -3.598965
 H        -4.189353         1.481254        -2.959759
