19
Iteration:   893
 C         1.437575         0.082169         0.010918
 C         0.001271         0.060611         0.142240
 C        -1.213297         0.170819        -0.054868
 C        -2.705769         0.289750         0.078764
 O        -2.959479        -0.368110         1.321569
 C        -3.416676        -0.309771        -1.173864
 C        -4.800300         0.351653        -1.550950
 C        -3.908517         0.839249        -2.756718
 O        -2.679259         0.307714        -2.234412
 H         1.945051         0.602641        -0.812858
 H         1.920915         0.553096         0.911994
 H         1.875939        -1.053064        -0.042060
 H        -2.784428         1.407402         0.160976
 H        -2.646491        -1.293608         1.256746
 H        -3.434745        -1.384311        -1.140073
 H        -5.499746        -0.451027        -1.870645
 H        -5.288484         1.194343        -1.059306
 H        -3.936481         0.364454        -3.784537
 H        -3.754117         1.960979        -2.817892
