19
Iteration:   516
 C         1.487195         0.158534         0.312975
 C         0.060664         0.092396        -0.069633
 C        -1.143735         0.094520         0.094247
 C        -2.558601         0.158764         0.007448
 O        -3.110498        -0.786103         1.054986
 C        -3.233764        -0.335279        -1.307572
 C        -4.705741         0.324871        -1.434438
 C        -4.124097         1.106999        -2.607182
 O        -2.790658         0.574207        -2.361641
 H         2.163316         0.486757        -0.487141
 H         1.516014         0.845573         1.088417
 H         1.783075        -0.693617         0.759110
 H        -2.981507         1.068693         0.254430
 H        -2.388081        -1.016817         1.692457
 H        -2.947194        -1.364870        -1.547138
 H        -5.540603        -0.297888        -1.800939
 H        -4.942776         0.782162        -0.474290
 H        -4.581851         0.897353        -3.577354
 H        -4.136627         2.212223        -2.432781
