19
Iteration:  4369
 C         1.601147        -0.388638         0.313245
 C         0.165426         0.103306         0.158614
 C        -1.004747         0.281890        -0.085693
 C        -2.357723         0.778228        -0.422976
 O        -2.857293         1.796142         0.490225
 C        -3.302304        -0.359017        -0.771414
 C        -4.819366        -0.085120        -1.091377
 C        -4.490251        -0.506850        -2.448972
 O        -3.087810        -0.447300        -2.254551
 H         1.679002        -1.535611         0.373800
 H         2.087397         0.147454        -0.501077
 H         2.122172        -0.232672         1.196482
 H        -2.228928         1.362164        -1.364463
 H        -1.971361         2.069589         0.923289
 H        -2.972723        -1.287159        -0.103664
 H        -5.658704        -0.697385        -0.698536
 H        -5.069502         0.959351        -0.823259
 H        -4.714004        -1.614898        -2.737231
 H        -4.754263         0.149537        -3.337749
