19
Iteration:  3070charge 0 multiplicity 1
 C         1.670771        -0.191666         0.249057
 C         0.215788         0.043139         0.090631
 C        -1.000399         0.167229        -0.053164
 C        -2.413584         0.779559        -0.105912
 O        -3.050386         1.082653         1.119882
 C        -3.234443        -0.285226        -1.017488
 C        -4.784315        -0.169942        -1.230939
 C        -4.414872         0.004616        -2.773169
 O        -2.976659        -0.140686        -2.468034
 H         2.147217         0.633268         0.705451
 H         1.727835        -0.965128         0.975002
 H         2.228754        -0.670449        -0.567674
 H        -2.423919         1.606493        -0.881605
 H        -3.570705         0.336368         1.358753
 H        -2.956037        -1.308055        -0.832530
 H        -5.551437        -0.930043        -1.043336
 H        -5.140597         0.831357        -0.910621
 H        -4.861616        -0.884606        -3.351130
 H        -4.720163         0.886689        -3.263206
