19
Iteration:   676
 C         1.514214        -0.366444         0.307173
 C         0.112835         0.092868         0.274014
 C        -1.056314         0.429861         0.066407
 C        -2.562573         0.404348         0.085025
 O        -3.030166        -0.393956         1.195438
 C        -3.051780        -0.114353        -1.395101
 C        -4.602732        -0.277152        -1.587362
 C        -4.441281         0.923318        -2.627186
 O        -2.992113         0.815029        -2.490887
 H         1.941783        -0.458156         1.277157
 H         1.579788        -1.418831        -0.185939
 H         2.280535         0.147181        -0.367650
 H        -3.070296         1.346246         0.289617
 H        -2.546114        -1.210257         1.439103
 H        -2.472733        -0.963323        -1.803388
 H        -4.873750        -1.272809        -1.981019
 H        -5.239182         0.025201        -0.750281
 H        -4.698334         0.708013        -3.730326
 H        -4.589713         2.026625        -2.405191
