19
Iteration:   271
 C         1.407942        -0.037813        -0.167950
 C        -0.013963         0.159871         0.019221
 C        -1.195230         0.057798         0.310247
 C        -2.645839         0.109164         0.223064
 O        -3.341805        -0.932205         0.926128
 C        -3.017352        -0.052151        -1.232256
 C        -4.510987         0.136506        -1.464235
 C        -4.094039         1.011421        -2.626827
 O        -2.693562         1.035330        -2.099942
 H         1.940944         0.618468         0.380888
 H         1.583410        -1.058991         0.226704
 H         1.744525         0.109683        -1.241577
 H        -2.987384         1.125877         0.421303
 H        -2.536779        -1.531215         1.137196
 H        -2.587683        -1.011065        -1.573133
 H        -4.979882        -0.871636        -1.685367
 H        -5.306074         0.568709        -0.737166
 H        -4.093462         0.473178        -3.627160
 H        -4.474299         2.070102        -2.715084
