19
Iteration:  4892charge 0 multiplicity 1
 C         1.512381        -0.470039         0.021710
 C         0.158012        -0.066815         0.005364
 C        -0.996043         0.248874         0.071374
 C        -2.320576         0.999831        -0.367340
 O        -2.903152         1.961901         0.420785
 C        -3.379803        -0.184441        -0.668289
 C        -4.853104         0.086551        -1.181384
 C        -4.306382        -0.629570        -2.435899
 O        -2.997111        -0.746506        -1.971525
 H         2.266469        -0.204642        -0.757493
 H         2.121381        -0.055243         0.981278
 H         1.683380        -1.643437         0.187639
 H        -1.894031         1.501574        -1.289049
 H        -3.851334         1.778100         0.672949
 H        -3.263291        -0.988190         0.043638
 H        -5.567853        -0.402221        -0.481615
 H        -4.997261         1.172843        -1.344656
 H        -4.705914        -1.676294        -2.681880
 H        -4.249960         0.042525        -3.340143
