19
Iteration:  2783charge 0 multiplicity 1
 C         1.480573        -0.212687        -0.256065
 C         0.087022         0.015266         0.039065
 C        -1.100209         0.272971         0.253065
 C        -2.469434         0.702501        -0.026061
 O        -3.187880         0.683494         1.199145
 C        -3.303643        -0.247502        -0.909193
 C        -4.710155         0.218524        -1.405468
 C        -4.006947         0.297333        -2.844356
 O        -2.810207        -0.430059        -2.201340
 H         2.205721         0.450594         0.263638
 H         1.603543        -1.205102         0.184261
 H         1.819971        -0.334816        -1.423671
 H        -2.517368         1.823802        -0.248693
 H        -4.136204         0.900898         0.878291
 H        -3.216118        -1.121069        -0.195062
 H        -5.492572        -0.528644        -1.216324
 H        -4.984862         1.244114        -1.010490
 H        -4.462337        -0.292031        -3.654611
 H        -3.664404         1.201740        -3.209229
