19
Iteration:  4881charge 0 multiplicity 1
 C         1.550124        -0.510277         0.018074
 C         0.112307        -0.091270         0.052350
 C        -1.080121         0.317721         0.068144
 C        -2.314248         0.971367        -0.382672
 O        -2.873876         2.005221         0.490255
 C        -3.342605        -0.155546        -0.654582
 C        -4.739321         0.045597        -1.160598
 C        -4.342094        -0.648042        -2.516863
 O        -2.960675        -0.759760        -1.948538
 H         1.681453        -0.222866        -1.052082
 H         2.118360         0.192599         0.761406
 H         1.595955        -1.697036         0.075747
 H        -2.051664         1.524002        -1.347719
 H        -3.863975         1.763001         0.457639
 H        -3.280733        -0.849613         0.182084
 H        -5.659015        -0.428743        -0.754989
 H        -5.075235         1.092989        -1.311326
 H        -4.853858        -1.649421        -2.776563
 H        -4.465016        -0.023651        -3.452766
