19
Iteration:  3656charge 0 multiplicity 1
 C         1.526775        -0.251069         0.310384
 C         0.147339         0.157754         0.161565
 C        -0.912274         0.610119        -0.173024
 C        -2.292635         0.857249        -0.394032
 O        -2.824010         1.207958         0.943069
 C        -3.316543        -0.318216        -0.916773
 C        -4.846310         0.020799        -1.186144
 C        -4.393001        -0.180149        -2.668099
 O        -3.127397        -0.738440        -2.299661
 H         1.856785        -0.557728        -0.766024
 H         2.111785         0.714881         0.603410
 H         1.825656        -1.006403         1.005939
 H        -2.498407         1.778533        -0.961888
 H        -2.960083         0.289641         1.232100
 H        -3.235018        -1.012382        -0.140901
 H        -5.576131        -0.741446        -0.881305
 H        -5.135213         1.043392        -1.068032
 H        -4.910535        -0.833694        -3.260514
 H        -4.303537         0.821159        -3.140136
