19
Iteration:   760
 C         1.487571        -0.294231        -0.013278
 C         0.061836        -0.004154         0.123448
 C        -1.126199         0.221181         0.319303
 C        -2.547819         0.471754         0.128170
 O        -3.162930        -0.438527         1.123168
 C        -3.093649        -0.029450        -1.246933
 C        -4.545807        -0.129907        -1.537099
 C        -4.277253         0.638165        -2.777376
 O        -2.873927         0.931955        -2.328203
 H         1.664400        -1.355727         0.216111
 H         1.829614        -0.041032        -0.973258
 H         1.854249         0.409759         0.842262
 H        -2.758974         1.595391         0.187751
 H        -3.170548        -0.023179         1.984998
 H        -2.431405        -0.891881        -1.433776
 H        -4.850083        -1.168942        -1.689536
 H        -5.230684         0.333442        -0.797419
 H        -4.234143        -0.106822        -3.552373
 H        -4.680873         1.641018        -2.927687
