19
Iteration:  3861charge 0 multiplicity 1
 C         1.553090        -0.320320         0.228149
 C         0.063275        -0.163567         0.162469
 C        -1.077510         0.214871        -0.024443
 C        -2.338227         0.880595        -0.349565
 O        -2.881514         1.724570         0.788254
 C        -3.205656        -0.201466        -0.940955
 C        -4.753556        -0.102550        -1.071840
 C        -4.425980        -0.582687        -2.498933
 O        -3.024208        -0.283492        -2.467955
 H         1.663261        -0.439997         1.323399
 H         1.917086        -1.245381        -0.187689
 H         2.101509         0.576952        -0.153601
 H        -2.099851         1.653468        -1.028830
 H        -3.540552         1.071416         1.144032
 H        -2.766623        -1.183402        -0.588684
 H        -5.169498        -0.636331        -0.226889
 H        -5.013836         0.956046        -1.090970
 H        -4.523444        -1.696502        -2.610156
 H        -4.951193        -0.021233        -3.250080
