19
Iteration:  3192charge 0 multiplicity 1
 C         1.433435        -0.263891         0.569201
 C         0.110815         0.177620         0.104934
 C        -0.942103         0.437621        -0.450525
 C        -2.426657         0.711535        -0.341347
 O        -2.679228         0.892655         1.171506
 C        -3.172470        -0.396682        -1.023259
 C        -4.757270        -0.013051        -1.211119
 C        -4.465889         0.139618        -2.679788
 O        -3.111430        -0.396731        -2.469415
 H         1.402520        -1.125405         1.237201
 H         2.016173        -0.409106        -0.331703
 H         1.913348         0.492917         1.111766
 H        -2.585170         1.730877        -0.824698
 H        -3.594938         1.280134         1.194573
 H        -2.953673        -1.359176        -0.602209
 H        -5.432913        -0.844659        -0.989684
 H        -5.136346         0.820203        -0.541235
 H        -5.083596        -0.460577        -3.481699
 H        -4.331043         1.187496        -3.105706
