19
Iteration:  1429charge 0 multiplicity 1
 C         1.405005        -0.229848         0.234815
 C         0.098586         0.305043        -0.028760
 C        -1.140297         0.437423        -0.100966
 C        -2.664189         0.402097        -0.001577
 O        -3.069113        -0.204035         1.282884
 C        -3.238994        -0.393363        -1.114150
 C        -4.640651         0.184194        -1.414557
 C        -4.095137         0.866930        -2.652313
 O        -2.772419         0.153246        -2.500597
 H         1.590869        -0.201803         1.336698
 H         1.578406        -1.249105        -0.014823
 H         2.193296         0.463162        -0.263959
 H        -3.072290         1.475677         0.171749
 H        -2.686739        -1.118562         1.186872
 H        -3.029367        -1.485720        -1.117419
 H        -5.351170        -0.589850        -1.719758
 H        -5.033283         0.680400        -0.553259
 H        -4.581564         0.747928        -3.620167
 H        -3.924461         1.977715        -2.468868
