19
Iteration:  4946
 C         1.441436        -0.417991         0.317222
 C         0.127393         0.097787         0.110143
 C        -0.956026         0.533172        -0.288585
 C        -2.315727         0.939298        -0.565806
 O        -2.832102         1.746122         0.621945
 C        -3.314611        -0.273743        -0.784390
 C        -4.642213         0.286700        -1.173300
 C        -4.535396        -0.592857        -2.407617
 O        -3.114326        -1.033632        -2.057369
 H         2.116527         0.286958        -0.181729
 H         1.865567        -0.814130         1.219107
 H         1.782081        -1.394335        -0.196441
 H        -2.307942         1.568922        -1.477256
 H        -2.035090         1.910905         1.177811
 H        -3.118370        -0.950869         0.092771
 H        -5.412769        -0.031330        -0.467922
 H        -4.730855         1.373694        -1.295863
 H        -5.232146        -1.449689        -2.523709
 H        -4.537911         0.001307        -3.352086
