19
Iteration:  4823
 C         1.287898        -0.687329        -0.007629
 C         0.058917         0.066930        -0.037006
 C        -1.026117         0.671042        -0.242337
 C        -2.383178         1.116068        -0.385784
 O        -3.002305         1.725101         0.745004
 C        -3.257103        -0.140996        -0.723848
 C        -4.654398         0.176097        -1.201612
 C        -4.163429        -0.685805        -2.453299
 O        -2.893063        -0.938175        -1.887004
 H         1.436310        -1.393456        -0.928615
 H         2.232658        -0.049479         0.008358
 H         1.345278        -1.350373         0.944251
 H        -2.568745         1.738603        -1.262793
 H        -3.042136         2.640057         0.493110
 H        -3.288667        -0.724008         0.240405
 H        -5.480543        -0.372750        -0.771617
 H        -4.851484         1.204015        -1.335641
 H        -4.779851        -1.579185        -2.546506
 H        -4.112188        -0.121978        -3.415459
