19
Iteration:  4312charge 0 multiplicity 1
 C         1.490812        -0.548853         0.328384
 C         0.136156         0.012525         0.081183
 C        -0.867358         0.638410        -0.206349
 C        -2.260834         1.077059        -0.390247
 O        -3.067851         1.598035         0.729304
 C        -3.143098        -0.106175        -1.008437
 C        -4.672476         0.134011        -1.033961
 C        -4.541258        -0.686093        -2.425578
 O        -3.055947        -0.755622        -2.319576
 H         1.558079        -1.400141         1.017252
 H         1.947748        -0.868577        -0.623833
 H         2.007505         0.311040         0.546737
 H        -2.178369         1.861913        -1.152496
 H        -3.361114         0.843667         1.229392
 H        -2.927622        -0.811285        -0.108038
 H        -5.188625        -0.338937        -0.188605
 H        -4.908972         1.229849        -1.087318
 H        -4.947120        -1.754532        -2.555235
 H        -4.813707        -0.020409        -3.261618
