19
Iteration:  3606
 C         1.562217        -0.126564        -0.048543
 C         0.136293         0.080515        -0.088231
 C        -1.038529         0.326394         0.095906
 C        -2.431148         0.675881        -0.141912
 O        -3.222362         1.251496         0.943416
 C        -3.304115        -0.414167        -0.787953
 C        -4.682709         0.327328        -1.293417
 C        -4.174401        -0.204154        -2.698198
 O        -2.911097        -0.680412        -2.224512
 H         1.794741        -1.077573        -0.392279
 H         2.285014         0.573507        -0.372189
 H         1.680213        -0.122631         1.115334
 H        -2.532288         1.415700        -0.936545
 H        -2.503659         1.236598         1.655145
 H        -3.389833        -1.249930        -0.027914
 H        -5.651245        -0.027833        -0.902802
 H        -4.416841         1.391349        -1.109840
 H        -4.976655        -1.065376        -2.977565
 H        -4.062505         0.565587        -3.480440
