19
Iteration:  1570
 C         1.373986         0.127979        -0.391380
 C         0.032921        -0.043108        -0.026139
 C        -1.116219        -0.037655         0.353968
 C        -2.600113         0.302055         0.240404
 O        -3.414888        -0.114677         1.268420
 C        -3.320742        -0.249041        -1.021337
 C        -4.584825         0.284981        -1.579931
 C        -3.827815         0.604758        -2.817679
 O        -2.592891         0.322575        -2.194184
 H         1.666377        -0.546704        -1.228843
 H         1.487698         1.066515        -0.783168
 H         2.058520         0.112611         0.528200
 H        -2.635854         1.506858         0.238958
 H        -3.603560         0.652325         1.876605
 H        -3.151282        -1.330078        -0.803013
 H        -5.404522        -0.406792        -1.774890
 H        -4.938423         1.051772        -0.891896
 H        -4.081138        -0.198002        -3.600361
 H        -3.850108         1.626312        -3.297534
