19
Iteration:   998
 C         1.452244         0.149627        -0.090297
 C         0.056025         0.171483         0.138492
 C        -1.153289         0.089977        -0.010187
 C        -2.627286         0.279649         0.049914
 O        -3.242194        -0.258573         1.258298
 C        -3.346793        -0.348637        -1.110946
 C        -4.692074         0.330456        -1.526751
 C        -3.824113         0.948594        -2.596975
 O        -2.750538         0.018733        -2.359228
 H         1.998104         0.828797         0.663161
 H         1.784955        -0.884022        -0.015796
 H         1.791056         0.509153        -1.012611
 H        -2.826364         1.353113         0.211596
 H        -2.777717        -0.984969         1.633197
 H        -3.345498        -1.479775        -0.885929
 H        -5.568625        -0.221262        -1.943908
 H        -5.158840         0.950970        -0.717488
 H        -4.044012         1.101049        -3.662602
 H        -3.442209         1.947666        -2.361228
