19
Iteration:   346
 C         1.326344         0.136996        -0.355189
 C        -0.051093         0.091818         0.119132
 C        -1.261994        -0.035110         0.273304
 C        -2.700970         0.005332         0.224037
 O        -3.264579        -0.880849         1.217212
 C        -3.078263        -0.116748        -1.222768
 C        -4.463476         0.164610        -1.646952
 C        -3.896030         0.987069        -2.702109
 O        -2.629462         0.974987        -2.040038
 H         2.114757        -0.270618         0.233658
 H         1.300927        -0.316352        -1.363189
 H         1.502033         1.291233        -0.501780
 H        -2.934276         0.970294         0.651448
 H        -4.248665        -0.774733         1.240940
 H        -2.610954        -1.071689        -1.549209
 H        -5.079673        -0.711283        -1.977865
 H        -5.182954         0.661755        -0.865785
 H        -3.854045         0.650142        -3.770597
 H        -4.279715         2.004315        -2.651859
