19
Iteration:  1780
 C         1.670853        -0.165079         0.139597
 C         0.179642         0.032803         0.266430
 C        -1.026387         0.077611         0.297471
 C        -2.420725         0.423187         0.007153
 O        -3.369937        -0.053569         1.010138
 C        -3.120264        -0.223009        -1.254269
 C        -4.667410         0.046785        -1.310702
 C        -4.327044         0.645493        -2.764731
 O        -2.919219         0.486551        -2.521809
 H         2.276562         0.477338         0.830593
 H         2.162631        -1.109493         0.320433
 H         1.979256         0.097365        -1.024397
 H        -2.405834         1.481096        -0.114645
 H        -3.165791         0.447848         1.877297
 H        -2.902286        -1.300229        -1.283342
 H        -5.393085        -0.780454        -1.216596
 H        -5.094659         0.871514        -0.722406
 H        -4.857430        -0.045900        -3.438712
 H        -4.535135         1.636238        -3.088085
