19
Iteration:   733
 C         1.481560        -0.373219         0.170681
 C         0.066808        -0.004206        -0.039833
 C        -1.087517         0.443688        -0.046789
 C        -2.601721         0.476834         0.120770
 O        -3.224226        -0.396998         1.144621
 C        -3.053149        -0.172382        -1.213724
 C        -4.497486        -0.251892        -1.584245
 C        -4.239116         0.700344        -2.686460
 O        -2.902350         0.980513        -2.163656
 H         1.600785        -1.256855         0.888917
 H         1.962587        -0.723058        -0.858122
 H         1.873017         0.482933         0.580144
 H        -2.975290         1.508493         0.074389
 H        -2.917754        -0.348841         2.036225
 H        -2.364968        -0.995771        -1.477687
 H        -4.886481        -1.279411        -1.743864
 H        -5.163461         0.183239        -0.857827
 H        -4.250941         0.357481        -3.749529
 H        -4.780914         1.679613        -2.701138
