19
Iteration:   428charge 0 multiplicity 1
 C         1.354515         0.240429        -0.178441
 C        -0.051100         0.014629         0.189383
 C        -1.249325         0.176561         0.223013
 C        -2.711062         0.075170         0.308840
 O        -3.160349        -0.856605         1.202003
 C        -3.174160        -0.265415        -1.237402
 C        -4.601714         0.258550        -1.558708
 C        -3.934397         1.118626        -2.725558
 O        -2.598316         0.688591        -2.329362
 H         1.735394        -0.746652        -0.617100
 H         1.467335         1.002667        -0.932012
 H         2.006075         0.410746         0.605192
 H        -3.119286         1.011248         0.687049
 H        -3.189132        -1.765989         0.989788
 H        -2.895355        -1.336124        -1.341015
 H        -5.249051        -0.535571        -1.972103
 H        -5.083312         0.849335        -0.738674
 H        -4.245475         0.855592        -3.762110
 H        -3.967775         2.266320        -2.591516
