19
Iteration:  1226charge 0 multiplicity 1
 C         1.423867        -0.459058         0.332128
 C         0.171320         0.057960         0.022178
 C        -1.006498         0.417971        -0.123699
 C        -2.498710         0.500583         0.130433
 O        -3.048384        -0.153271         1.299962
 C        -3.149767        -0.099041        -1.236254
 C        -4.671505        -0.183470        -1.545002
 C        -4.265234         0.465752        -2.851165
 O        -3.032091         0.909127        -2.321650
 H         1.921416        -0.773287        -0.566986
 H         2.142546         0.208963         0.897243
 H         1.421024        -1.206879         1.069146
 H        -2.839006         1.592652         0.331061
 H        -2.586253        -1.000055         1.358534
 H        -2.642031        -1.063920        -1.570022
 H        -5.273573        -1.141066        -1.621127
 H        -5.168995         0.401689        -0.737598
 H        -3.982676        -0.094936        -3.766061
 H        -4.842329         1.360695        -3.258495
