19
Iteration:  3889charge 0 multiplicity 1
 C         1.480323        -0.373022         0.195292
 C         0.053910        -0.159401         0.268400
 C        -0.950900         0.458685        -0.072179
 C        -2.291990         0.930932        -0.362699
 O        -2.890050         1.613649         0.808838
 C        -3.241915        -0.195854        -0.866104
 C        -4.840023        -0.063071        -1.214950
 C        -4.395694        -0.644760        -2.553355
 O        -3.051085        -0.340238        -2.360619
 H         1.811981        -0.926089         1.054368
 H         1.669923        -0.930245        -0.753160
 H         2.070202         0.578133         0.200574
 H        -2.170311         1.751722        -1.151313
 H        -2.352555         1.141869         1.538124
 H        -2.914986        -1.112596        -0.407526
 H        -5.427467        -0.587861        -0.454273
 H        -5.132939         0.993826        -1.257846
 H        -4.564454        -1.742563        -2.628234
 H        -4.789803        -0.194118        -3.524238
