19
Iteration:  4054charge 0 multiplicity 1
 C         1.393667        -0.386865        -0.069211
 C         0.009248         0.013158        -0.191827
 C        -1.176214         0.215731        -0.117469
 C        -2.445219         0.868917        -0.138142
 O        -2.910978         1.750456         0.877691
 C        -3.472084        -0.268155        -0.615948
 C        -4.757679         0.181315        -1.500732
 C        -3.942903        -0.351261        -2.635279
 O        -2.857869        -0.826868        -1.841338
 H         1.745040        -0.217343        -1.046607
 H         1.988878         0.324423         0.450783
 H         1.577054        -1.426451         0.165249
 H        -2.336987         1.533126        -0.941642
 H        -2.644852         1.414892         1.720062
 H        -3.523900        -0.996638         0.237599
 H        -5.587419        -0.517965        -1.276654
 H        -5.183727         1.192782        -1.460669
 H        -4.444901        -1.054656        -3.290152
 H        -3.682867         0.467603        -3.376643
