19
Iteration:  3017charge 0 multiplicity 1
 C         1.456730        -0.279516         0.073370
 C         0.060722         0.022727         0.065096
 C        -1.108030         0.333351         0.016285
 C        -2.459512         0.823436        -0.186895
 O        -3.169459         0.879253         1.169087
 C        -3.160433        -0.212431        -0.988043
 C        -4.646356         0.020560        -1.254611
 C        -4.238544        -0.177198        -2.722221
 O        -2.831030        -0.079269        -2.362745
 H         1.896116         0.375180        -0.823509
 H         2.173053        -0.065424         0.965530
 H         1.642035        -1.293363        -0.385140
 H        -2.569360         1.758011        -0.721218
 H        -2.754366         0.168598         1.637423
 H        -3.012471        -1.310956        -0.647095
 H        -5.471680        -0.594015        -0.929528
 H        -4.765833         1.090255        -1.066791
 H        -4.567594        -1.134735        -3.098324
 H        -4.510959         0.612827        -3.335233
