19
Iteration:  2667
 C         1.502423        -0.369859         0.252658
 C         0.111271         0.118296         0.026121
 C        -1.069123         0.488186        -0.088592
 C        -2.523456         0.735464        -0.213674
 O        -2.925686         0.536020         1.337524
 C        -3.232241        -0.304445        -1.022533
 C        -4.711234         0.047148        -1.367209
 C        -4.230251         0.335599        -2.715392
 O        -2.950778        -0.243291        -2.491242
 H         1.816204        -0.957453        -0.684166
 H         2.334732         0.428058         0.418897
 H         1.518264        -1.132004         0.990990
 H        -2.893066         1.723658        -0.551755
 H        -3.447520         1.386418         1.562860
 H        -3.123105        -1.307533        -0.628302
 H        -5.400014        -0.780841        -1.258162
 H        -5.025353         0.884965        -0.757753
 H        -4.842778        -0.134322        -3.489817
 H        -4.165635         1.357356        -3.072486
