19
Iteration:  1489
 C         1.523274         0.018882        -0.160242
 C         0.101957         0.020731         0.107166
 C        -1.115836         0.208755         0.129026
 C        -2.607898         0.412173         0.165543
 O        -3.366511        -0.156432         1.308719
 C        -3.278989        -0.247236        -1.104277
 C        -4.685483         0.248799        -1.512547
 C        -3.967099         0.781734        -2.780527
 O        -2.719356         0.113644        -2.367653
 H         2.005770        -0.719092         0.503587
 H         1.710786        -0.043588        -1.311502
 H         1.971366         0.916077         0.181646
 H        -2.846656         1.592326         0.274090
 H        -2.784696        -0.809565         1.856846
 H        -2.896347        -1.260701        -0.916277
 H        -5.181346        -0.682661        -1.836758
 H        -5.337286         0.868387        -0.818628
 H        -4.249251         0.442851        -3.788248
 H        -3.756865         1.801687        -2.794430
