19
Iteration:  1971
 C         1.520469        -0.355194         0.306744
 C         0.183037         0.158920         0.225344
 C        -0.962380         0.335161        -0.024566
 C        -2.408572         0.571142        -0.068023
 O        -3.178462         0.126060         1.111501
 C        -3.128274        -0.258160        -1.181251
 C        -4.649335        -0.083208        -1.312703
 C        -4.410489         0.602183        -2.686706
 O        -2.948943         0.258709        -2.587362
 H         1.445421        -1.175682        -0.465720
 H         2.462325         0.303514         0.142608
 H         1.684566        -0.824595         1.316643
 H        -2.549282         1.573140        -0.276351
 H        -3.194584         0.837341         1.716643
 H        -2.631540        -1.202769        -1.141902
 H        -5.348428        -0.887445        -1.422034
 H        -5.157350         0.594137        -0.629572
 H        -4.740809         0.093262        -3.521172
 H        -4.755216         1.644287        -2.692365
