19
Iteration:   933
 C         1.480505         0.028543         0.046920
 C        -0.007325         0.264653        -0.010618
 C        -1.218174         0.282462         0.047222
 C        -2.650646         0.327312         0.128946
 O        -3.086562        -0.475884         1.364361
 C        -3.364301        -0.274113        -1.131569
 C        -4.704496         0.404152        -1.550035
 C        -3.815363         0.971634        -2.699050
 O        -2.799489        -0.029583        -2.448694
 H         2.081826         0.939355        -0.307226
 H         1.617890        -0.191901         1.056978
 H         1.791825        -0.733293        -0.655304
 H        -3.149446         1.290100         0.238782
 H        -2.204490        -0.880879         1.547637
 H        -3.311995        -1.424135        -1.057873
 H        -5.409379        -0.400246        -1.886086
 H        -5.164286         1.115988        -0.797208
 H        -4.379990         1.057309        -3.657073
 H        -3.432459         1.995071        -2.582257
