19
Iteration:   314charge 0 multiplicity 1
 C         1.352335         0.086652        -0.364195
 C         0.005661        -0.058383         0.208501
 C        -1.161133         0.082550         0.542416
 C        -2.621788         0.163557         0.276359
 O        -3.267519        -0.887230         1.014338
 C        -3.046733        -0.060569        -1.193260
 C        -4.569535         0.124969        -1.633168
 C        -3.988065         0.990282        -2.679308
 O        -2.693399         0.967796        -2.124665
 H         2.149081         0.294977         0.241397
 H         1.551226        -0.753442        -1.045197
 H         1.224420         1.038643        -1.029736
 H        -3.063747         1.022326         0.751932
 H        -3.829756        -1.438509         0.487934
 H        -2.652401        -1.058471        -1.551300
 H        -5.075532        -0.734321        -2.200527
 H        -5.274111         0.583494        -0.745773
 H        -4.069904         0.513036        -3.719515
 H        -4.316877         2.047650        -2.755272
