19
Iteration:  4148
 C         1.430118        -0.483204        -0.099464
 C         0.166439         0.256769        -0.098935
 C        -1.017027         0.433648         0.062521
 C        -2.430687         0.783410        -0.170510
 O        -3.079254         1.589462         0.791332
 C        -3.420818        -0.280775        -0.699775
 C        -4.654302         0.316015        -1.361598
 C        -4.108456        -0.363064        -2.718586
 O        -2.977046        -0.973370        -1.889467
 H         2.315066         0.312623        -0.098392
 H         1.793031        -1.071744         0.815686
 H         1.382554        -1.116202        -0.965506
 H        -2.409178         1.459094        -1.134988
 H        -2.509461         1.657948         1.631756
 H        -3.849140        -0.962708        -0.022946
 H        -5.604074         0.091577        -0.864218
 H        -4.631718         1.420109        -1.400323
 H        -4.635817        -1.104813        -3.360684
 H        -3.629590         0.268114        -3.456120
