19
Iteration:  1853
 C         1.588803        -0.237950         0.583026
 C         0.227289         0.030940         0.063796
 C        -0.962011         0.152077        -0.166960
 C        -2.495032         0.430125        -0.098425
 O        -3.044710         0.211741         1.228461
 C        -3.211062        -0.267006        -1.290274
 C        -4.757072        -0.128759        -1.444028
 C        -4.418861         0.679834        -2.680409
 O        -3.015968         0.457468        -2.513838
 H         1.755880        -0.674752         1.573125
 H         2.180889        -0.825890        -0.112461
 H         2.117092         0.647252         0.517812
 H        -2.609541         1.607151        -0.306206
 H        -2.451650        -0.482383         1.657061
 H        -2.729821        -1.274638        -1.404473
 H        -5.352763        -1.015428        -1.658194
 H        -5.173899         0.271610        -0.488787
 H        -4.684764         0.165502        -3.658903
 H        -4.841129         1.734572        -2.634960
