19
Iteration:  3751
 C         1.418743        -0.335437         0.642893
 C         0.120909         0.038502         0.034555
 C        -0.896805         0.571620        -0.453166
 C        -2.314657         0.887779        -0.452813
 O        -2.744138         1.264572         0.921081
 C        -3.190202        -0.290349        -0.958005
 C        -4.651049        -0.134115        -1.023556
 C        -4.586574        -0.260023        -2.511948
 O        -3.173267        -0.487737        -2.491199
 H         2.099648         0.476306         0.448691
 H         1.338690        -0.607381         1.651874
 H         1.877263        -1.245476         0.143233
 H        -2.615271         1.730665        -1.101942
 H        -3.365451         1.977085         0.871869
 H        -2.755856        -1.270781        -0.531322
 H        -4.951615        -0.913168        -0.329196
 H        -4.949988         0.860225        -0.648119
 H        -5.114033        -1.090078        -3.139746
 H        -4.773063         0.687403        -3.070216
