19
Iteration:  3723charge 0 multiplicity 1
 C         1.324610        -0.310384         0.639355
 C         0.226374         0.135741        -0.230016
 C        -0.944460         0.467415        -0.454671
 C        -2.355051         0.837783        -0.505663
 O        -2.802662         1.163200         0.852893
 C        -3.260235        -0.378733        -0.836379
 C        -4.747574        -0.099447        -1.024400
 C        -4.471830        -0.191278        -2.500406
 O        -3.043456        -0.379806        -2.325632
 H         2.221423         0.307777         0.303044
 H         1.021862        -0.007309         1.726383
 H         1.466083        -1.382715         0.808975
 H        -2.590738         1.631495        -1.275842
 H        -2.501998         2.074386         1.102645
 H        -2.861514        -1.305820        -0.449444
 H        -5.202486        -1.000522        -0.609705
 H        -4.896682         0.840739        -0.504537
 H        -4.856949        -1.083039        -2.864179
 H        -4.608675         0.626866        -3.222221
