19
Iteration:  2598
 C         1.577819        -0.278540         0.308547
 C         0.154318        -0.034977         0.050994
 C        -0.992478         0.349730         0.090038
 C        -2.365494         0.644706        -0.190568
 O        -3.143973         0.660392         1.117889
 C        -3.165880        -0.213971        -1.083932
 C        -4.653894         0.108153        -1.203952
 C        -4.422471         0.132867        -2.720887
 O        -2.992477         0.009938        -2.556611
 H         1.770113        -1.323086         0.627281
 H         2.102419        -0.076179        -0.633806
 H         1.995233         0.210810         1.185936
 H        -2.431177         1.659854        -0.549378
 H        -3.032950        -0.308308         1.358013
 H        -2.854859        -1.268284        -0.967443
 H        -5.244029        -0.773051        -0.988694
 H        -5.157353         0.963240        -0.826735
 H        -4.853922        -0.645458        -3.440002
 H        -4.785390         1.115261        -3.225435
