19
Iteration:  4735charge 0 multiplicity 1
 C         1.200693        -0.556146        -0.046550
 C        -0.091665        -0.001388         0.095631
 C        -1.053488         0.644916        -0.379169
 C        -2.426919         1.118157        -0.365272
 O        -2.664359         1.793309         0.945365
 C        -3.374496        -0.113540        -0.704923
 C        -4.751450         0.134253        -1.507098
 C        -4.169073        -0.812343        -2.529457
 O        -2.831408        -0.851824        -1.804583
 H         1.042141        -1.556499         0.320547
 H         1.623434        -0.457917        -1.023984
 H         1.972343         0.045498         0.498112
 H        -2.534777         1.908364        -1.106403
 H        -2.600185         1.057665         1.524097
 H        -3.651492        -0.702768         0.135954
 H        -5.624697        -0.317456        -1.039435
 H        -4.986054         1.170931        -1.695028
 H        -4.526265        -1.839519        -2.514693
 H        -3.863377        -0.553584        -3.570834
