19
Iteration:  3640
 C         1.628202        -0.196291         0.166259
 C         0.202712         0.156596         0.139651
 C        -0.951303         0.439960        -0.097268
 C        -2.383077         0.881261        -0.344159
 O        -3.039074         1.176596         0.889974
 C        -3.296096        -0.250430        -0.862822
 C        -4.763299         0.137508        -1.237267
 C        -4.334798        -0.170120        -2.677227
 O        -3.080486        -0.758462        -2.222737
 H         1.910910        -0.875082        -0.590244
 H         2.283153         0.609886         0.204513
 H         1.790331        -0.900880         1.048407
 H        -2.372471         1.752393        -1.019394
 H        -3.002421         0.389221         1.513346
 H        -3.169656        -1.162938        -0.159588
 H        -5.432181        -0.612623        -0.787784
 H        -5.160634         1.099061        -0.817334
 H        -5.081587        -0.892811        -3.233681
 H        -4.173012         0.689973        -3.357244
