19
Iteration:  2081
 C         1.520263        -0.178194        -0.143223
 C         0.107612         0.048982         0.105242
 C        -1.120769         0.201592         0.320514
 C        -2.526126         0.502608         0.070223
 O        -3.199418         0.270903         1.325690
 C        -3.277146        -0.222661        -1.075921
 C        -4.710731         0.209371        -1.464615
 C        -4.104046         0.266666        -2.877847
 O        -2.732472         0.255923        -2.376671
 H         2.032657         0.696248        -0.617155
 H         1.972728        -0.319405         0.917960
 H         1.797826        -1.094970        -0.635229
 H        -2.566633         1.665752        -0.068537
 H        -3.765032        -0.557676         1.196760
 H        -3.113932        -1.324782        -1.139980
 H        -5.534101        -0.490911        -1.463509
 H        -4.930773         1.187538        -1.020732
 H        -4.442867        -0.565968        -3.580621
 H        -4.294882         1.202233        -3.440100
