19
Iteration:   106charge 0 multiplicity 1
 C         1.677864        -0.046043         0.442443
 C         0.160328        -0.040321         0.288216
 C        -1.018011         0.052235        -0.052206
 C        -2.512145         0.020612        -0.076453
 O        -3.033081        -0.929185         0.816592
 C        -3.187164        -0.105210        -1.508662
 C        -4.698474         0.166043        -1.349904
 C        -4.391683         1.381260        -2.285299
 O        -3.097883         0.896387        -2.515929
 H         2.290534        -0.808594        -0.197647
 H         2.139804         0.992017         0.351013
 H         2.038147        -0.515182         1.554400
 H        -2.868837         1.033168         0.365564
 H        -2.378701        -1.032203         1.485438
 H        -2.898479        -1.044025        -2.037387
 H        -5.157080        -0.626943        -1.939380
 H        -5.353671         0.281025        -0.378970
 H        -4.982261         1.473460        -3.235252
 H        -4.202487         2.376256        -1.768493
