19
Iteration:  2029charge 0 multiplicity 1
 C         1.527540        -0.127428         0.133104
 C         0.055687        -0.227469         0.007319
 C        -1.078456         0.085978         0.109283
 C        -2.496536         0.506649        -0.006338
 O        -3.251247         0.395042         1.213834
 C        -3.170308        -0.233268        -1.116087
 C        -4.667419        -0.010349        -1.329442
 C        -4.208618         0.424805        -2.844735
 O        -2.822963         0.382724        -2.351646
 H         1.958942         0.177128        -0.922020
 H         1.819131         0.812465         0.713534
 H         2.003354        -1.061658         0.337297
 H        -2.480002         1.495375        -0.292739
 H        -2.605241         0.106327         1.966979
 H        -2.841360        -1.247873        -1.261336
 H        -5.222529        -0.972116        -1.490936
 H        -5.258264         0.798740        -0.856306
 H        -4.244529        -0.231940        -3.679329
 H        -4.583298         1.417361        -3.211157
