19
Iteration:  2333
 C         1.480333        -0.186082        -0.104027
 C         0.027554        -0.018347         0.002991
 C        -1.173838         0.196330         0.218724
 C        -2.548923         0.552389         0.028883
 O        -3.118672         0.496781         1.306388
 C        -3.199901        -0.336114        -1.056041
 C        -4.688039         0.039496        -1.461895
 C        -4.096397         0.481335        -2.782570
 O        -2.785010        -0.024628        -2.386208
 H         1.855826        -0.652910        -1.035588
 H         2.082360         0.842820        -0.206313
 H         1.876705        -0.618957         0.908892
 H        -2.442815         1.583500        -0.180842
 H        -3.770751         1.069752         1.710756
 H        -2.934656        -1.373361        -0.737176
 H        -5.385621        -0.806503        -1.415112
 H        -5.076144         0.861797        -0.860553
 H        -4.440183         0.011598        -3.632177
 H        -4.005682         1.532125        -2.892961
