19
Iteration:  3137charge 0 multiplicity 1
 C         1.500704        -0.196088         0.487237
 C         0.207384         0.106233         0.076134
 C        -0.922278         0.449561        -0.192778
 C        -2.330797         0.693570        -0.300546
 O        -3.039755         0.799065         0.963848
 C        -3.160301        -0.346654        -1.083431
 C        -4.635051         0.004639        -1.094270
 C        -4.511945         0.143014        -2.595269
 O        -3.113527        -0.372791        -2.558091
 H         1.401182        -0.212486         1.583663
 H         1.722508        -1.253832         0.245341
 H         2.351548         0.330742         0.161472
 H        -2.377891         1.761917        -0.711382
 H        -2.960139         1.743947         1.312835
 H        -2.932413        -1.287667        -0.611481
 H        -5.235878        -0.864680        -0.848026
 H        -4.777795         0.844909        -0.375074
 H        -5.189956        -0.497857        -3.263643
 H        -4.414148         1.120398        -3.043459
