19
Iteration:  3397
 C         1.282839        -0.396895        -0.310436
 C        -0.100815         0.086429        -0.213047
 C        -1.208687         0.539513        -0.000324
 C        -2.629585         0.883776         0.022295
 O        -3.095116         1.006897         1.339344
 C        -3.373835        -0.178822        -0.785398
 C        -4.593445         0.265403        -1.630039
 C        -3.832180        -0.409702        -2.733614
 O        -2.636815        -0.409960        -1.940165
 H         1.907233         0.489913        -0.412487
 H         1.500496        -1.073150         0.541647
 H         1.373851        -1.085110        -1.307007
 H        -2.804262         1.873508        -0.546910
 H        -2.321166         0.910909         1.866911
 H        -3.486531        -1.219007        -0.207066
 H        -5.594159        -0.155877        -1.535460
 H        -4.565279         1.348444        -1.754088
 H        -4.226510        -1.418195        -2.992475
 H        -3.694446         0.074429        -3.679577
