19
Iteration:  3420charge 0 multiplicity 1
 C         1.201594        -0.436761        -0.363749
 C        -0.086886         0.159716        -0.005275
 C        -1.209758         0.665313        -0.091028
 C        -2.611995         1.018268         0.047903
 O        -2.975307         0.956666         1.437526
 C        -3.408355        -0.041811        -0.782452
 C        -4.646447         0.256149        -1.697768
 C        -3.823124        -0.492681        -2.834891
 O        -2.621942        -0.564626        -1.965126
 H         2.016671         0.300390        -0.159337
 H         1.238964        -1.385836         0.193275
 H         1.217924        -0.796619        -1.530562
 H        -2.804967         2.077788        -0.336558
 H        -2.461341         0.117072         1.705765
 H        -3.632626        -0.996469        -0.085214
 H        -5.438610        -0.375232        -1.258920
 H        -4.914727         1.317071        -1.885431
 H        -4.125879        -1.459295        -3.226585
 H        -3.603742         0.165886        -3.691311
