19
Iteration:  3371charge 0 multiplicity 1
 C         1.379881        -0.360618        -0.286740
 C        -0.010057         0.032220        -0.254312
 C        -1.136690         0.355655         0.005562
 C        -2.522393         0.829077         0.080558
 O        -3.319326         1.083802         1.360304
 C        -3.337821        -0.173073        -0.809166
 C        -4.606799         0.246644        -1.507448
 C        -3.930276        -0.339210        -2.723711
 O        -2.627428        -0.428298        -2.101485
 H         1.916892         0.496029        -0.767860
 H         1.882086        -0.551969         0.739259
 H         1.458780        -1.229750        -0.841103
 H        -2.525263         1.803566        -0.455553
 H        -2.834013         1.770384         1.779663
 H        -3.405389        -1.136414        -0.314627
 H        -5.627737        -0.083623        -1.304301
 H        -4.535435         1.343302        -1.607452
 H        -4.357586        -1.380853        -3.151687
 H        -3.947328         0.156924        -3.725505
