19
Iteration:  3177charge 0 multiplicity 1
 C         1.457331        -0.264827         0.583346
 C         0.217612         0.191373         0.000382
 C        -0.882260         0.482331        -0.380468
 C        -2.293884         0.732780        -0.277704
 O        -2.826241         0.797336         1.015739
 C        -3.292698        -0.346690        -0.973653
 C        -4.762772        -0.032928        -1.141079
 C        -4.427715         0.164857        -2.652537
 O        -3.122568        -0.391201        -2.480363
 H         1.211990        -0.917114         1.398331
 H         2.013468        -0.881664        -0.075520
 H         1.986208         0.626180         1.079582
 H        -2.521408         1.643892        -0.817927
 H        -3.512765         1.425191         0.938712
 H        -3.057432        -1.340868        -0.603962
 H        -5.359709        -0.946793        -0.983436
 H        -5.275124         0.792219        -0.696277
 H        -5.055160        -0.518719        -3.217334
 H        -4.514591         1.257385        -2.975564
