19
Iteration:    73
 C         1.544191        -0.057907         0.409220
 C         0.103925        -0.057756         0.162218
 C        -1.072765         0.041589        -0.096068
 C        -2.513427         0.078855        -0.091582
 O        -2.819722        -0.928316         0.808205
 C        -3.226193        -0.205421        -1.445244
 C        -4.770097         0.112906        -1.479395
 C        -4.316438         1.415383        -2.288222
 O        -2.983073         0.916749        -2.288466
 H         1.946255        -1.132899         0.301156
 H         2.149391         0.683317        -0.187813
 H         1.618736         0.295753         1.533126
 H        -2.888675         1.105624         0.228556
 H        -3.422992        -0.548496         1.442754
 H        -2.868744        -1.167271        -1.882713
 H        -5.268255        -0.668607        -2.030742
 H        -5.231617         0.397397        -0.451406
 H        -4.810647         1.733948        -3.221042
 H        -4.451033         2.295875        -1.587681
