19
Iteration:  3718
 C         1.325972        -0.284292         0.649451
 C         0.214214         0.151864        -0.254670
 C        -0.972782         0.443428        -0.434411
 C        -2.408666         0.833645        -0.496293
 O        -2.794977         1.153943         0.841071
 C        -3.225685        -0.345935        -0.834362
 C        -4.708944        -0.102101        -1.016126
 C        -4.431109        -0.186462        -2.526677
 O        -3.052399        -0.380819        -2.313220
 H         2.264875         0.136645         0.359135
 H         1.171276         0.065208         1.628715
 H         1.332572        -1.395150         0.715660
 H        -2.541386         1.506608        -1.352964
 H        -2.277938         1.907373         1.142896
 H        -3.174434        -1.353304        -0.283957
 H        -5.250801        -0.943744        -0.554758
 H        -4.987871         0.831032        -0.488780
 H        -4.914578        -1.163646        -2.960749
 H        -4.663598         0.689378        -3.188657
