19
Iteration:  4113charge 0 multiplicity 1
 C         1.528272        -0.422508        -0.219630
 C         0.086187         0.036345         0.097553
 C        -1.056417         0.456073         0.083551
 C        -2.382837         0.927228        -0.317845
 O        -3.152338         1.566766         0.709609
 C        -3.384717        -0.259705        -0.693792
 C        -4.620568         0.362992        -1.310295
 C        -3.994907        -0.265346        -2.671087
 O        -3.038060        -1.086247        -1.815148
 H         1.900129         0.370855        -0.896658
 H         2.136103        -0.708181         0.646713
 H         1.533472        -1.293142        -0.949519
 H        -2.426986         1.647723        -1.160249
 H        -3.694455         0.931136         1.243706
 H        -3.497945        -0.834747         0.194121
 H        -5.504817        -0.143271        -0.883340
 H        -4.670963         1.447776        -1.131824
 H        -4.541153        -0.916899        -3.397669
 H        -3.382464         0.551816        -3.056504
