19
Iteration:  3722
 C         1.325013        -0.310346         0.641426
 C         0.227818         0.138976        -0.236402
 C        -0.953172         0.463180        -0.450473
 C        -2.366156         0.837915        -0.505508
 O        -2.801731         1.158611         0.850047
 C        -3.255060        -0.373427        -0.831703
 C        -4.741023        -0.099103        -1.024673
 C        -4.464063        -0.192925        -2.504786
 O        -3.045878        -0.378778        -2.323401
 H         2.233657         0.294200         0.304419
 H         1.049065         0.001626         1.720603
 H         1.429021        -1.348217         0.801558
 H        -2.580359         1.607503        -1.308533
 H        -2.447530         2.070179         1.120633
 H        -2.934077        -1.310267        -0.425840
 H        -5.195242        -0.999086        -0.595851
 H        -4.894979         0.828264        -0.501186
 H        -4.849246        -1.073278        -2.862468
 H        -4.614440         0.649636        -3.229198
