19
Iteration:  4520
 C         1.446902        -0.228046         0.478897
 C         0.083261        -0.012234        -0.016345
 C        -0.920491         0.490051        -0.450947
 C        -2.286951         0.918628        -0.520940
 O        -2.524206         1.664251         0.750860
 C        -3.388847        -0.235992        -0.785006
 C        -4.904592         0.101616        -1.145792
 C        -4.428237        -0.442276        -2.595447
 O        -3.198646        -0.951744        -2.040816
 H         2.153771         0.575020         0.133873
 H         1.610082        -0.146649         1.588261
 H         1.709732        -1.241220         0.177077
 H        -2.363409         1.546438        -1.419374
 H        -2.462298         0.884021         1.407491
 H        -3.423433        -0.874186         0.045565
 H        -5.448620        -0.709262        -0.600482
 H        -5.265994         1.104474        -1.337656
 H        -5.041852        -1.208459        -3.093532
 H        -4.199142         0.340041        -3.317026
