19
Iteration:  1291charge 0 multiplicity 1
 C         1.692224        -0.226230         0.348773
 C         0.198085        -0.128435         0.261831
 C        -0.984783         0.061588         0.111616
 C        -2.423863         0.437512        -0.004363
 O        -3.345492        -0.065174         1.065890
 C        -3.105495        -0.084032        -1.437184
 C        -4.554928        -0.042293        -1.274201
 C        -4.461021         0.625210        -2.677573
 O        -3.015995         0.743121        -2.611906
 H         2.053068         0.562078        -0.254287
 H         2.071804         0.121166         1.460329
 H         2.078004        -1.216062         0.095356
 H        -2.493283         1.537658        -0.212941
 H        -2.733479        -0.552343         1.599747
 H        -2.645722        -1.078160        -1.733536
 H        -4.978616        -1.085633        -1.252679
 H        -4.938763         0.530353        -0.400934
 H        -4.908493        -0.167470        -3.442451
 H        -5.144802         1.552653        -2.553071
