19
Iteration:  1147charge 0 multiplicity 1
 C         1.323023        -0.411850        -0.030926
 C         0.053836         0.168203         0.314296
 C        -1.108208         0.464393         0.259234
 C        -2.524649         0.565986         0.117808
 O        -3.127641        -0.300067         1.171488
 C        -3.080155        -0.084925        -1.214281
 C        -4.664878        -0.053523        -1.473772
 C        -4.203335         0.496762        -2.824991
 O        -2.801477         0.692687        -2.403443
 H         1.342700        -1.386572        -0.315631
 H         1.754231         0.101227        -0.952437
 H         2.078380        -0.394712         0.769050
 H        -2.838335         1.624906         0.133459
 H        -2.425766        -0.916918         1.267996
 H        -2.600065        -1.124534        -1.386324
 H        -5.101889        -1.020153        -1.621601
 H        -5.136782         0.575786        -0.752061
 H        -4.293136        -0.231546        -3.639606
 H        -4.555100         1.527244        -3.019343
