19
Iteration:   714charge 0 multiplicity 1
 C         1.400824        -0.373145         0.225840
 C         0.057043         0.096970        -0.032738
 C        -1.129730         0.373081        -0.012702
 C        -2.576837         0.362484         0.059593
 O        -3.116090        -0.333966         1.147426
 C        -3.033477        -0.134768        -1.291484
 C        -4.586651        -0.322546        -1.540811
 C        -4.248054         0.813040        -2.674553
 O        -2.886737         0.958059        -2.184159
 H         1.275462        -1.014445         1.160938
 H         1.647654        -1.059974        -0.544057
 H         2.153156         0.380701         0.361762
 H        -2.903108         1.438442         0.048241
 H        -2.391985        -0.393165         1.718653
 H        -2.352556        -0.896406        -1.573626
 H        -4.807524        -1.280396        -2.009042
 H        -5.231697        -0.183934        -0.650329
 H        -4.135912         0.423291        -3.635708
 H        -4.901724         1.597846        -2.556261
