19
Iteration:  4179charge 0 multiplicity 1
 C         1.382744        -0.400734         0.052661
 C         0.044301         0.009975        -0.071233
 C        -1.091737         0.400222        -0.221918
 C        -2.455288         0.971608        -0.271993
 O        -2.880969         1.490766         0.979990
 C        -3.370585        -0.181040        -0.699366
 C        -4.707802         0.245703        -1.391875
 C        -4.151420        -0.492336        -2.698868
 O        -2.905938        -0.812731        -1.935591
 H         2.016943         0.427651         0.363432
 H         1.540500        -1.243972         0.700735
 H         1.798603        -0.758919        -0.897593
 H        -2.455184         1.673533        -1.081846
 H        -2.373511         2.274267         1.152721
 H        -3.628715        -0.831482         0.128571
 H        -5.596123        -0.238157        -0.970400
 H        -4.944082         1.313422        -1.514969
 H        -4.783015        -1.393171        -2.828458
 H        -3.875712         0.051208        -3.593608
