19
Iteration:  1636
 C         1.309054        -0.209149        -0.322986
 C        -0.054918         0.322970         0.065144
 C        -1.263385         0.461658         0.287064
 C        -2.662046         0.403640         0.200747
 O        -3.246315        -0.339239         1.290448
 C        -3.295322        -0.215150        -1.047840
 C        -4.588364         0.301112        -1.511056
 C        -3.804514         0.536135        -2.842189
 O        -2.547183         0.250792        -2.237094
 H         1.483737        -0.153648        -1.438630
 H         2.028119         0.467958        -0.098509
 H         1.344240        -1.316246         0.021674
 H        -3.086709         1.577887         0.147151
 H        -2.469549        -0.584920         1.808156
 H        -3.259665        -1.292535        -1.175150
 H        -5.525113        -0.242284        -1.478298
 H        -4.712021         1.313070        -1.097537
 H        -4.000589        -0.280435        -3.597200
 H        -3.882447         1.466285        -3.341905
