19
Iteration:  3384
 C         1.364406        -0.378756        -0.328979
 C        -0.067521         0.041023        -0.250518
 C        -1.187082         0.450396        -0.014972
 C        -2.643745         0.837011         0.038630
 O        -3.227730         1.067860         1.369326
 C        -3.373267        -0.222881        -0.737447
 C        -4.576737         0.305231        -1.550022
 C        -3.868850        -0.410818        -2.824540
 O        -2.605097        -0.391857        -2.038853
 H         2.132200         0.376023        -0.521738
 H         1.604981        -0.737604         0.740055
 H         1.626625        -1.227150        -1.057063
 H        -2.758697         1.801263        -0.568343
 H        -2.504643         1.423004         2.009272
 H        -3.568692        -1.186396        -0.102367
 H        -5.482676        -0.005395        -1.065417
 H        -4.647572         1.375194        -1.606117
 H        -4.175085        -1.529545        -2.884166
 H        -3.761949         0.209219        -3.674087
