19
Iteration:  3461
 C         1.154726        -0.457196        -0.316110
 C        -0.046671         0.338744        -0.245658
 C        -1.119524         0.835573         0.004584
 C        -2.593722         0.948295         0.061527
 O        -3.006089         0.912641         1.372625
 C        -3.373629        -0.170187        -0.833109
 C        -4.567544         0.303987        -1.663258
 C        -3.833258        -0.440234        -2.771326
 O        -2.703782        -0.672948        -1.887572
 H         1.751079        -0.481331         0.523917
 H         0.907859        -1.546689        -0.300170
 H         1.713754        -0.394617        -1.220251
 H        -2.978852         1.894594        -0.363279
 H        -2.882884         0.030099         1.708215
 H        -3.667882        -0.879913        -0.135256
 H        -5.516326        -0.109316        -1.399965
 H        -4.680689         1.337975        -1.944913
 H        -4.345199        -1.333438        -3.300252
 H        -3.468445         0.115556        -3.613715
