19
Iteration:  3209
 C         1.384639        -0.211949         0.486189
 C         0.019130         0.092658         0.129700
 C        -1.060846         0.407150        -0.291968
 C        -2.414947         0.784189        -0.313230
 O        -2.544795         0.926608         1.097975
 C        -3.325722        -0.383895        -1.048663
 C        -4.764870        -0.057641        -1.155921
 C        -4.381771         0.124828        -2.672092
 O        -3.015342        -0.396252        -2.523615
 H         1.418292        -1.291677         0.791440
 H         2.207967        -0.089317        -0.336438
 H         1.871106         0.495381         1.322320
 H        -2.713931         1.651314        -0.855627
 H        -3.496086         1.025561         1.446905
 H        -3.108459        -1.350832        -0.482309
 H        -5.491389        -0.823325        -0.871298
 H        -4.969648         0.920016        -0.806965
 H        -4.850412        -0.456297        -3.392415
 H        -4.448455         1.131344        -3.098583
