19
Iteration:  3158charge 0 multiplicity 1
 C         1.550409        -0.291551         0.640769
 C         0.292109         0.194662        -0.126875
 C        -0.930443         0.433298        -0.184203
 C        -2.392636         0.781199        -0.443685
 O        -2.941916         0.744652         0.961694
 C        -3.184617        -0.328438        -1.061664
 C        -4.779883        -0.021851        -1.088602
 C        -4.494737         0.150288        -2.582569
 O        -3.097672        -0.373037        -2.447377
 H         1.340648        -0.616912         1.615354
 H         2.047191        -1.092019         0.201391
 H         2.210351         0.539459         0.651416
 H        -2.685271         1.746826        -1.003052
 H        -3.448534         1.498353         1.255517
 H        -2.903412        -1.134365        -0.478591
 H        -5.388455        -0.879203        -0.816750
 H        -5.039245         0.951832        -0.590121
 H        -4.983921        -0.450087        -3.493130
 H        -4.324210         1.234461        -2.900200
