19
Iteration:  1656charge 0 multiplicity 1
 C         1.246489        -0.222138        -0.238464
 C        -0.006504         0.312264         0.009437
 C        -1.217240         0.490720         0.154672
 C        -2.720250         0.441659         0.244218
 O        -3.137160        -0.335982         1.397922
 C        -3.251490        -0.207354        -1.047797
 C        -4.647008         0.318750        -1.618466
 C        -3.844401         0.512462        -2.941346
 O        -2.580447         0.287645        -2.178125
 H         1.699320        -0.104480        -1.299066
 H         2.053281         0.114323         0.451469
 H         0.998609        -1.319595        -0.094882
 H        -3.164856         1.360430         0.486338
 H        -2.352961        -0.998228         1.479796
 H        -3.082909        -1.278317        -0.950992
 H        -5.425054        -0.444192        -1.742618
 H        -4.973101         1.180800        -1.028492
 H        -4.194531        -0.201953        -3.694576
 H        -3.878311         1.471671        -3.322067
