19
Iteration:  3457
 C         1.138234        -0.448708        -0.339201
 C        -0.047539         0.307683        -0.199112
 C        -1.105736         0.844644        -0.014098
 C        -2.557880         0.984117         0.082371
 O        -2.993482         0.916664         1.403678
 C        -3.388449        -0.133964        -0.834626
 C        -4.584780         0.300511        -1.661189
 C        -3.828562        -0.485066        -2.803361
 O        -2.694007        -0.683490        -1.904765
 H         1.874258        -0.439991         0.574842
 H         0.821725        -1.514326        -0.161632
 H         1.638530        -0.335745        -1.294524
 H        -2.947334         1.876073        -0.349448
 H        -2.916648        -0.059927         1.617739
 H        -3.717784        -1.075086        -0.141714
 H        -5.605001        -0.110784        -1.471817
 H        -4.886804         1.319370        -2.016454
 H        -4.380394        -1.289495        -3.320935
 H        -3.461928         0.244338        -3.631829
