19
Iteration:  1181
 C         1.322996        -0.491731         0.170896
 C        -0.034539         0.054759        -0.016633
 C        -1.153894         0.597525         0.055614
 C        -2.528946         0.579575         0.117232
 O        -3.066813        -0.317820         1.242472
 C        -3.037311        -0.048751        -1.173618
 C        -4.556548        -0.128334        -1.474856
 C        -4.219336         0.449570        -2.804271
 O        -2.845803         0.823014        -2.336758
 H         1.445921        -1.353833        -0.422759
 H         2.057934         0.374615        -0.030497
 H         1.526149        -0.642451         1.213103
 H        -3.041047         1.586233         0.210932
 H        -2.349738        -0.998117         1.255797
 H        -2.457579        -0.948474        -1.520721
 H        -5.144985        -1.070735        -1.406834
 H        -5.119696         0.508996        -0.785600
 H        -4.220143        -0.261906        -3.626944
 H        -4.696258         1.351586        -3.335128
