19
Iteration:  1536charge 0 multiplicity 1
 C         1.364762         0.164301        -0.305528
 C        -0.007369        -0.018450        -0.032206
 C        -1.208544        -0.109789         0.143865
 C        -2.651686         0.198710         0.208330
 O        -3.436798         0.002878         1.393951
 C        -3.208154        -0.349864        -1.071982
 C        -4.549106         0.249604        -1.507825
 C        -3.882934         0.681325        -2.760588
 O        -2.537006         0.346490        -2.288738
 H         1.945383        -0.826871        -0.430784
 H         1.404446         0.811770        -1.105467
 H         1.920996         0.612257         0.544074
 H        -2.662468         1.364196         0.053798
 H        -2.989650         0.603758         2.010765
 H        -3.297539        -1.481332        -1.123674
 H        -5.403874        -0.421482        -1.649839
 H        -4.744304         1.017694        -0.765034
 H        -4.102999        -0.014841        -3.633013
 H        -3.867305         1.699024        -3.129437
