19
Iteration:  4527charge 0 multiplicity 1
 C         1.413633        -0.195990         0.460674
 C         0.107040        -0.045546        -0.005477
 C        -0.937089         0.433768        -0.440768
 C        -2.312330         0.904351        -0.573260
 O        -2.559232         1.636552         0.720458
 C        -3.423448        -0.205338        -0.795841
 C        -4.887920         0.083702        -1.164081
 C        -4.396922        -0.434102        -2.568028
 O        -3.141024        -0.890984        -1.985221
 H         1.960980         0.571445         0.002165
 H         1.559253        -0.379798         1.542672
 H         1.871497        -1.190348         0.034041
 H        -2.392389         1.626651        -1.408274
 H        -2.442591         1.019957         1.509762
 H        -3.273400        -1.000249         0.041147
 H        -5.656227        -0.416495        -0.567802
 H        -5.218798         1.163347        -1.063369
 H        -4.907417        -1.331877        -2.911777
 H        -4.136989         0.289362        -3.384169
