19
Iteration:   880charge 0 multiplicity 1
 C         1.465687         0.078202         0.053983
 C         0.007660         0.002809         0.005339
 C        -1.210735         0.143110         0.027045
 C        -2.637127         0.258576         0.143023
 O        -3.028299        -0.342097         1.354862
 C        -3.351976        -0.274345        -1.116048
 C        -4.709104         0.305812        -1.612501
 C        -3.953062         0.842173        -2.839799
 O        -2.709812         0.386821        -2.255127
 H         1.701273         0.480327        -1.005573
 H         1.807730         0.744800         0.832238
 H         1.954764        -0.998036         0.248616
 H        -3.140820         1.248115         0.281759
 H        -2.719116        -1.266307         1.295339
 H        -3.210546        -1.368655        -1.208267
 H        -5.653037        -0.266605        -1.813130
 H        -4.959584         0.985136        -0.755829
 H        -4.331089         0.249700        -3.778887
 H        -4.061245         1.950780        -3.082736
