19
Iteration:  4656
 C         1.402940        -0.492704        -0.028127
 C         0.077113         0.071373        -0.094753
 C        -1.047774         0.550316        -0.001264
 C        -2.390224         0.942198        -0.354010
 O        -3.032000         1.605896         0.771949
 C        -3.332567        -0.177902        -0.660036
 C        -4.533155         0.393466        -1.433270
 C        -4.286636        -0.671273        -2.430539
 O        -2.956653        -0.926117        -1.937449
 H         1.925777        -0.688212         0.964526
 H         1.364918        -1.489476        -0.433256
 H         1.922923         0.323702        -0.513057
 H        -2.343391         1.575020        -1.262429
 H        -2.379989         2.186272         1.099805
 H        -3.562005        -0.830308         0.149962
 H        -5.549452         0.161319        -1.174532
 H        -4.178448         1.366221        -1.844910
 H        -4.870586        -1.603570        -2.244217
 H        -4.281337        -0.493964        -3.533403
