19
Iteration:  3710
 C         1.316267        -0.248983         0.618372
 C         0.181529         0.177178        -0.232184
 C        -1.000433         0.412482        -0.419899
 C        -2.405741         0.796606        -0.441261
 O        -2.791785         1.176826         0.835452
 C        -3.213432        -0.344871        -0.886626
 C        -4.691087        -0.080655        -0.983394
 C        -4.437588        -0.208854        -2.562670
 O        -3.030153        -0.419701        -2.297589
 H         2.409547        -0.194587         0.295785
 H         1.223426         0.228151         1.631523
 H         1.244306        -1.281519         0.589505
 H        -2.591072         1.638828        -1.184917
 H        -1.961572         1.568367         1.207800
 H        -3.023157        -1.162819        -0.221506
 H        -5.428791        -0.812722        -0.613578
 H        -5.201986         0.831912        -0.713381
 H        -4.899991        -0.956830        -3.108146
 H        -4.698219         0.761846        -3.090110
