19
Iteration:  1982
 C         1.562746        -0.368056         0.234317
 C         0.189694         0.158957         0.264961
 C        -0.968404         0.258707        -0.043529
 C        -2.458691         0.517208        -0.039417
 O        -3.219486         0.195946         1.197987
 C        -3.140021        -0.247505        -1.191874
 C        -4.644164        -0.092253        -1.385091
 C        -4.379405         0.569545        -2.720271
 O        -2.961951         0.313737        -2.557988
 H         1.989052        -1.022235        -0.582299
 H         2.224560         0.624563         0.186036
 H         1.705636        -1.003553         1.162025
 H        -2.616012         1.539431        -0.114405
 H        -3.124166         0.997165         1.715316
 H        -2.971503        -1.311061        -1.122259
 H        -5.066213        -1.076818        -1.290120
 H        -5.010076         0.603998        -0.632424
 H        -4.806083         0.067614        -3.515557
 H        -4.458540         1.629549        -2.953441
