19
Iteration:  2156charge 0 multiplicity 1
 C         1.368180        -0.211791        -0.190855
 C        -0.053599         0.078756        -0.103454
 C        -1.210907         0.505258         0.147181
 C        -2.635294         0.589454         0.218307
 O        -3.137961        -0.030683         1.453963
 C        -3.313543        -0.209902        -0.956523
 C        -4.624934         0.458211        -1.616289
 C        -3.928176         0.270983        -2.929742
 O        -2.633698        -0.010081        -2.291454
 H         1.777161         0.414227         0.514472
 H         1.477396        -1.291206        -0.111477
 H         2.000290        -0.113522        -1.093392
 H        -3.040169         1.619217         0.130559
 H        -2.486526         0.280532         2.124301
 H        -3.364479        -1.293152        -0.897664
 H        -5.449374         0.002607        -1.119991
 H        -4.633880         1.511560        -1.329585
 H        -4.295505        -0.662094        -3.534319
 H        -3.949466         1.162955        -3.564544
