19
Iteration:  3503charge 0 multiplicity 1
 C         1.324510        -0.371839        -0.322080
 C        -0.073831         0.206617        -0.264344
 C        -1.203473         0.571698        -0.127201
 C        -2.589414         0.844915         0.032750
 O        -3.199397         0.993356         1.346911
 C        -3.342363        -0.125581        -0.749798
 C        -4.510825         0.348449        -1.577879
 C        -3.835977        -0.382321        -2.763912
 O        -2.686358        -0.683882        -1.914306
 H         1.589209        -0.785072         0.698518
 H         1.383604        -1.290136        -1.019647
 H         1.909536         0.409363        -0.577948
 H        -2.762595         1.793918        -0.445317
 H        -2.491283         1.166147         1.967930
 H        -3.580680        -1.074516        -0.080106
 H        -5.483880         0.135798        -1.179672
 H        -4.579192         1.425230        -1.641874
 H        -4.352472        -1.349424        -3.150720
 H        -3.774528         0.276090        -3.675695
