19
Iteration:  3562
 C         1.505046        -0.144468        -0.288173
 C         0.055656         0.027280         0.127847
 C        -1.156150         0.128937         0.010191
 C        -2.473621         0.849755        -0.029447
 O        -3.125549         1.172295         1.217532
 C        -3.394526        -0.178829        -0.814920
 C        -4.719598         0.271834        -1.547097
 C        -4.027945        -0.301802        -2.794582
 O        -2.812142        -0.643789        -2.039504
 H         1.974706        -1.062625        -0.162883
 H         1.480165         0.164502        -1.294671
 H         2.352271         0.492132         0.193084
 H        -2.306127         1.741748        -0.694491
 H        -2.762385         2.078134         1.467063
 H        -3.405401        -1.070016        -0.227626
 H        -5.602737        -0.359702        -1.347173
 H        -4.794795         1.372459        -1.577407
 H        -4.563413        -1.318153        -3.016722
 H        -3.931273         0.426057        -3.601497
