19
Iteration:   251
 C         1.441678        -0.053226        -0.010665
 C         0.032791         0.114463        -0.046727
 C        -1.136278         0.075097         0.263703
 C        -2.606247         0.079878         0.203895
 O        -3.180733        -0.950364         0.951056
 C        -3.131352        -0.120955        -1.323916
 C        -4.639148         0.083252        -1.573430
 C        -4.079113         1.072475        -2.635652
 O        -2.786673         1.082134        -2.055319
 H         2.042467         0.842115         0.282171
 H         1.757099        -0.917414         0.662499
 H         1.735180        -0.297882        -1.053852
 H        -3.000565         1.127823         0.413332
 H        -2.839246        -0.850294         1.827144
 H        -2.748319        -1.084691        -1.704391
 H        -5.480791        -0.607531        -1.721324
 H        -5.031972         0.649608        -0.781419
 H        -4.144017         0.643492        -3.633340
 H        -4.490933         2.127732        -2.614982
