19
Iteration:  4255
 C         1.277515        -0.560183         0.331781
 C         0.140588         0.263508        -0.093671
 C        -1.013063         0.565419        -0.428006
 C        -2.374141         1.005580        -0.293721
 O        -2.814703         1.469245         0.995045
 C        -3.251600        -0.190584        -0.817259
 C        -4.677421         0.178209        -1.328840
 C        -4.424980        -0.730069        -2.514527
 O        -2.970442        -0.631561        -2.220998
 H         1.376368        -0.517600         1.385820
 H         1.154377        -1.588674         0.035979
 H         2.279421        -0.188262         0.092412
 H        -2.428860         1.777874        -1.115825
 H        -1.951859         1.642532         1.430309
 H        -3.357951        -1.026095        -0.007061
 H        -5.580647        -0.101884        -0.778103
 H        -4.580062         1.264032        -1.401272
 H        -4.807152        -1.768477        -2.240638
 H        -4.749876        -0.496809        -3.538542
