19
Iteration:  3373
 C         1.388856        -0.359006        -0.286073
 C        -0.014554         0.033108        -0.262337
 C        -1.150952         0.371519        -0.003517
 C        -2.537079         0.816497         0.071049
 O        -3.310570         1.088394         1.370364
 C        -3.354421        -0.168593        -0.804043
 C        -4.607251         0.249378        -1.489094
 C        -3.907350        -0.351290        -2.755434
 O        -2.613080        -0.422412        -2.099543
 H         1.883117         0.476520        -0.754727
 H         1.802472        -0.604367         0.765787
 H         1.480749        -1.291633        -0.931368
 H        -2.600486         1.819072        -0.477023
 H        -2.799643         1.750068         1.887281
 H        -3.480421        -1.171669        -0.216197
 H        -5.609160        -0.040956        -1.284119
 H        -4.494498         1.303272        -1.634092
 H        -4.359361        -1.375397        -3.088017
 H        -3.942914         0.145398        -3.699779
