19
Iteration:   266
 C         1.410354        -0.060685        -0.154897
 C        -0.033771         0.169910         0.000398
 C        -1.193211         0.054466         0.328838
 C        -2.604735         0.105086         0.142625
 O        -3.301767        -0.930130         0.927205
 C        -3.072740        -0.075729        -1.222001
 C        -4.551221         0.113943        -1.457166
 C        -4.105661         1.038237        -2.661163
 O        -2.687160         1.041658        -2.076960
 H         1.953846         0.805750         0.490871
 H         1.585139        -1.015338         0.339957
 H         1.828670        -0.030920        -1.146391
 H        -2.951508         1.095008         0.554313
 H        -2.601196        -1.405666         1.388871
 H        -2.638671        -0.995990        -1.674232
 H        -4.925039        -0.854485        -1.705521
 H        -5.150985         0.614442        -0.662650
 H        -3.995479         0.615801        -3.657802
 H        -4.567268         2.002640        -2.714243
