19
Iteration:  3293
 C         1.508099        -0.319590         0.000261
 C         0.117566         0.143767         0.127433
 C        -1.069565         0.377186         0.150238
 C        -2.429643         0.742524        -0.179044
 O        -3.112645         1.010185         1.150717
 C        -3.166162        -0.371287        -0.981785
 C        -4.663584         0.195294        -1.263419
 C        -4.297908        -0.038163        -2.696261
 O        -2.906251        -0.496355        -2.403736
 H         1.760819        -0.610906        -1.082196
 H         2.257684         0.506647         0.119811
 H         1.740446        -1.092871         0.633321
 H        -2.436576         1.632451        -0.874162
 H        -3.543707         1.840678         1.015849
 H        -3.197523        -1.370527        -0.526164
 H        -5.560000        -0.333075        -0.863684
 H        -4.834338         1.293154        -1.202312
 H        -4.804656        -0.957375        -3.196388
 H        -4.153826         0.871477        -3.326068
