19
Iteration:  4370
 C         1.603834        -0.391067         0.312334
 C         0.174091         0.106677         0.165363
 C        -1.004058         0.274680        -0.086533
 C        -2.358492         0.778671        -0.430337
 O        -2.855836         1.801025         0.494318
 C        -3.300867        -0.357570        -0.771868
 C        -4.820074        -0.089948        -1.083522
 C        -4.491546        -0.502675        -2.459992
 O        -3.098366        -0.451251        -2.250696
 H         1.721457        -1.530851         0.355979
 H         2.081012         0.162900        -0.493203
 H         2.127310        -0.240360         1.225566
 H        -2.226571         1.390928        -1.335926
 H        -1.987149         2.093772         0.900753
 H        -2.983629        -1.286020        -0.102025
 H        -5.656766        -0.705342        -0.711297
 H        -5.084318         0.946792        -0.847133
 H        -4.719741        -1.593117        -2.752474
 H        -4.735627         0.126825        -3.367514
