19
Iteration:  2945charge 0 multiplicity 1
 C         1.324392        -0.420295        -0.045691
 C         0.055380         0.250713        -0.113972
 C        -1.124230         0.575805        -0.113348
 C        -2.551371         0.797093        -0.013127
 O        -3.080740         0.558574         1.407461
 C        -3.190880        -0.128288        -0.903754
 C        -4.652946         0.248061        -1.475571
 C        -4.025993        -0.192443        -2.734230
 O        -2.734776        -0.241664        -2.301746
 H         1.297267        -1.177890        -0.779256
 H         2.125573         0.250395        -0.291542
 H         1.547806        -0.995706         0.817779
 H        -2.775903         1.937039        -0.158812
 H        -3.995728         0.857307         1.373305
 H        -3.210623        -1.053627        -0.332040
 H        -5.446524        -0.351846        -0.969986
 H        -4.904418         1.374878        -1.370684
 H        -4.366208        -1.231080        -3.002426
 H        -4.311625         0.518635        -3.643983
