19
Iteration:  3459
 C         1.149967        -0.449398        -0.332392
 C        -0.049394         0.325119        -0.224191
 C        -1.109392         0.839283        -0.003380
 C        -2.577570         0.967137         0.073678
 O        -2.998872         0.913128         1.386048
 C        -3.380096        -0.155379        -0.839132
 C        -4.574793         0.303054        -1.659900
 C        -3.830747        -0.462080        -2.783237
 O        -2.700481        -0.676064        -1.892931
 H         1.799172        -0.481975         0.542589
 H         0.873315        -1.540804        -0.223778
 H         1.636968        -0.378244        -1.190621
 H        -2.963123         1.858738        -0.351575
 H        -2.902614         0.012851         1.652786
 H        -3.692596        -0.974277        -0.145166
 H        -5.550186        -0.101081        -1.443976
 H        -4.787283         1.315473        -1.987984
 H        -4.379187        -1.319403        -3.334528
 H        -3.459535         0.179074        -3.629402
