19
Iteration:  3213
 C         1.379183        -0.224077         0.452833
 C         0.031652         0.079194         0.123016
 C        -1.072628         0.402935        -0.261244
 C        -2.442459         0.770372        -0.285511
 O        -2.538713         0.933985         1.069092
 C        -3.255832        -0.386907        -1.008704
 C        -4.799512        -0.043013        -1.188393
 C        -4.366644         0.106631        -2.647138
 O        -3.020300        -0.378481        -2.520850
 H         1.517917        -1.201050         0.791311
 H         2.062155         0.101607        -0.230977
 H         1.694066         0.386921         1.267043
 H        -2.627510         1.709049        -0.893781
 H        -3.426597         0.970556         1.365100
 H        -3.203916        -1.288085        -0.489839
 H        -5.533906        -0.793695        -0.896809
 H        -5.103423         0.951952        -0.738542
 H        -4.825986        -0.562968        -3.490216
 H        -4.367912         1.136971        -3.157542
