19
Iteration:  3818charge 0 multiplicity 1
 C         1.623285        -0.413762         0.430979
 C         0.293272         0.062394         0.095189
 C        -0.870302         0.389710         0.027569
 C        -2.301250         0.787949        -0.369889
 O        -3.038180         1.533457         0.647401
 C        -3.180229        -0.361577        -0.985612
 C        -4.710951        -0.058930        -0.960830
 C        -4.530147        -0.434129        -2.496622
 O        -3.167266        -0.263967        -2.464175
 H         2.050826         0.178399         1.271029
 H         1.623488        -1.477655         0.503434
 H         2.259103        -0.284897        -0.480182
 H        -2.129170         1.494160        -1.230093
 H        -3.978747         1.137162         0.591770
 H        -2.971547        -1.431014        -0.619008
 H        -5.490958        -0.668804        -0.464705
 H        -4.952164         1.004683        -0.987290
 H        -5.005124        -1.483710        -2.754581
 H        -5.087417         0.349757        -3.135048
