19
Iteration:  3942charge 0 multiplicity 1
 C         1.335943        -0.586627         0.247289
 C         0.239175         0.274673        -0.168549
 C        -0.929822         0.627406        -0.292088
 C        -2.390220         1.000879        -0.292374
 O        -3.082780         1.280447         0.971048
 C        -3.245060        -0.233677        -0.841402
 C        -4.684799         0.224609        -1.251199
 C        -4.378581        -0.577965        -2.504243
 O        -2.870330        -0.690492        -2.180046
 H         0.982662        -1.572558         0.558751
 H         2.139553        -0.600037        -0.515988
 H         1.773406        -0.174076         1.091300
 H        -2.411197         1.918789        -0.849353
 H        -3.054598         2.288992         1.006770
 H        -3.118195        -1.103324        -0.116384
 H        -5.473731         0.052493        -0.514270
 H        -4.639011         1.315768        -1.373963
 H        -4.848960        -1.558404        -2.696370
 H        -4.544217         0.008803        -3.493186
