19
Iteration:  4075charge 0 multiplicity 1
 C         1.448523        -0.333496        -0.190615
 C        -0.046258        -0.200560        -0.054060
 C        -1.141791         0.367027        -0.004501
 C        -2.508759         0.942880        -0.275224
 O        -2.932714         1.760019         0.871308
 C        -3.442806        -0.275100        -0.667934
 C        -4.656707         0.206710        -1.351316
 C        -3.943036        -0.290187        -2.695359
 O        -2.921149        -0.986555        -1.840926
 H         1.924398         0.201299        -1.007334
 H         1.975586         0.213006         0.602279
 H         1.782938        -1.348131        -0.192559
 H        -2.293334         1.665956        -1.014139
 H        -3.464980         1.085222         1.431015
 H        -3.516410        -1.008636         0.258116
 H        -5.573142        -0.352329        -1.126140
 H        -4.894650         1.282267        -1.211214
 H        -4.348780        -0.918277        -3.472462
 H        -3.531575         0.561271        -3.344146
