19
Iteration:  2818
 C         1.439933        -0.208681        -0.306083
 C         0.033010         0.010740        -0.003686
 C        -1.110028         0.365130         0.144171
 C        -2.540300         0.624355         0.061143
 O        -3.367735         0.685367         1.304622
 C        -3.250317        -0.318944        -0.909010
 C        -4.525048         0.330664        -1.331304
 C        -4.003558         0.186134        -2.884543
 O        -2.719331        -0.436881        -2.245537
 H         2.047047        -0.160546         0.678991
 H         1.573125        -1.260849        -0.603060
 H         1.867491         0.431658        -1.149576
 H        -2.427925         1.729818        -0.354965
 H        -3.436593         1.697552         1.435685
 H        -3.282733        -1.328173        -0.421888
 H        -5.510236        -0.064724        -1.189593
 H        -4.602713         1.355678        -1.090890
 H        -4.564132        -0.606655        -3.477052
 H        -3.887825         1.103604        -3.475400
