19
Iteration:  4300
 C         1.428651        -0.556033         0.303418
 C         0.163136         0.091021         0.111252
 C        -0.870377         0.703996        -0.204753
 C        -2.267571         1.073612        -0.506308
 O        -2.998806         1.479597         0.748107
 C        -3.140577        -0.083927        -0.920685
 C        -4.656726         0.155722        -1.156003
 C        -4.483375        -0.688175        -2.406207
 O        -3.115532        -0.713119        -2.223489
 H         1.486788        -1.202890         1.169924
 H         1.579781        -1.165204        -0.587949
 H         2.283825         0.021921         0.512113
 H        -2.420154         1.994753        -1.108303
 H        -3.262234         0.665159         1.203542
 H        -2.912442        -1.048142        -0.369773
 H        -5.226565        -0.324263        -0.353324
 H        -5.061695         1.189394        -1.263766
 H        -5.019774        -1.712906        -2.353760
 H        -4.781874        -0.249155        -3.375207
