19
Iteration:  4877
 C         1.529789        -0.505376        -0.004142
 C         0.052177        -0.088202         0.079432
 C        -1.073260         0.349763         0.065248
 C        -2.309171         0.947379        -0.392531
 O        -2.868154         2.016133         0.526100
 C        -3.290476        -0.161302        -0.679158
 C        -4.741163         0.045490        -1.187194
 C        -4.352353        -0.642073        -2.529733
 O        -2.949621        -0.772675        -1.945254
 H         1.610884        -0.295356        -1.095214
 H         2.155244         0.009905         0.667625
 H         1.710757        -1.588020         0.169799
 H        -2.251059         1.372945        -1.400899
 H        -3.782964         1.849454         0.453019
 H        -3.292290        -0.774251         0.310270
 H        -5.578716        -0.461741        -0.695700
 H        -5.062473         1.049117        -1.298594
 H        -4.837247        -1.580816        -2.664656
 H        -4.452535        -0.040388        -3.428173
