19
Iteration:  4745charge 0 multiplicity 1
 C         1.213046        -0.557489         0.004556
 C        -0.108264         0.050459         0.012351
 C        -1.092318         0.663345        -0.393973
 C        -2.444982         1.161330        -0.326782
 O        -2.673018         1.795221         0.932906
 C        -3.367132        -0.134143        -0.694936
 C        -4.682043         0.184264        -1.415794
 C        -4.102975        -0.865691        -2.596681
 O        -2.866844        -0.887538        -1.823640
 H         1.220217        -1.758123         0.171262
 H         1.433666        -0.533932        -1.063246
 H         1.967730        -0.391780         0.806057
 H        -2.829280         1.869072        -1.057602
 H        -2.590383         1.210961         1.654414
 H        -3.317687        -0.816314         0.210547
 H        -5.596016        -0.294499        -1.088148
 H        -4.935328         1.228235        -1.691128
 H        -4.709882        -1.764705        -2.548148
 H        -4.065896        -0.508269        -3.670203
