19
Iteration:   608charge 0 multiplicity 1
 C         1.591787        -0.040340         0.455348
 C         0.183886         0.030307         0.133777
 C        -1.017226         0.140507         0.024121
 C        -2.503430         0.166311        -0.028245
 O        -3.248608        -0.487388         1.011762
 C        -3.063931        -0.198983        -1.450599
 C        -4.582015         0.021448        -1.357231
 C        -4.439552         1.038821        -2.528858
 O        -2.971006         0.720430        -2.529790
 H         1.925265         0.906472         0.871737
 H         1.716160        -0.889684         1.163607
 H         2.303870        -0.490312        -0.345364
 H        -2.529798         1.248012         0.045843
 H        -2.759240        -1.021711         1.604064
 H        -2.734100        -1.225633        -1.762136
 H        -5.144929        -0.838737        -1.664347
 H        -4.848862         0.414995        -0.363300
 H        -4.995081         0.880561        -3.539070
 H        -4.553167         2.148582        -2.189479
