19
Iteration:  1574charge 0 multiplicity 1
 C         1.382807         0.098602        -0.390926
 C         0.006662        -0.042358        -0.030748
 C        -1.125871        -0.001134         0.379434
 C        -2.584494         0.335234         0.254710
 O        -3.407532        -0.139754         1.260464
 C        -3.304515        -0.225107        -0.994676
 C        -4.596434         0.299094        -1.585123
 C        -3.818584         0.594449        -2.839814
 O        -2.585811         0.296557        -2.195586
 H         1.559744        -0.548866        -1.220911
 H         1.555247         1.247765        -0.696880
 H         2.151293         0.100989         0.410548
 H        -2.559962         1.344660         0.211015
 H        -3.620353         0.531484         1.885550
 H        -3.079049        -1.346974        -0.941579
 H        -5.388763        -0.423428        -1.798827
 H        -5.091806         1.109840        -1.007654
 H        -4.220997        -0.165073        -3.539519
 H        -4.015136         1.675517        -3.305623
