19
Iteration:   413charge 0 multiplicity 1
 C         1.371361         0.198775        -0.220860
 C        -0.063097         0.051573         0.062576
 C        -1.268955         0.103656         0.166653
 C        -2.731592         0.128682         0.225348
 O        -3.287135        -0.894522         1.222500
 C        -3.159633        -0.099789        -1.154657
 C        -4.561249         0.203362        -1.623542
 C        -3.889683         1.064510        -2.645026
 O        -2.549826         0.679447        -2.187169
 H         1.978291        -0.616043        -0.412986
 H         1.366138         0.875259        -1.125683
 H         1.880984         0.686905         0.694669
 H        -3.109142         1.096431         0.517304
 H        -2.635657        -1.568165         0.972291
 H        -2.931878        -1.124106        -1.460028
 H        -5.245941        -0.636166        -1.864060
 H        -5.192959         0.788405        -0.846669
 H        -4.013938         0.776834        -3.701262
 H        -4.161013         2.095333        -2.518577
