19
Iteration:  1837charge 0 multiplicity 1
 C         1.570733        -0.147653         0.424532
 C         0.133941        -0.064524         0.155283
 C        -1.027830         0.091297         0.026343
 C        -2.415021         0.456736        -0.142887
 O        -3.072866         0.156543         1.129275
 C        -3.157754        -0.275575        -1.288446
 C        -4.686380        -0.119570        -1.323471
 C        -4.435686         0.674927        -2.714993
 O        -2.969108         0.499918        -2.545462
 H         1.474701        -0.299669         1.507783
 H         1.993467        -1.058115        -0.059973
 H         2.184533         0.848016         0.354937
 H        -2.450354         1.469944        -0.365090
 H        -2.437738        -0.206332         1.727090
 H        -2.943951        -1.327280        -1.381490
 H        -5.191445        -1.106881        -1.364583
 H        -5.271388         0.552709        -0.715698
 H        -4.975394         0.238653        -3.529669
 H        -4.587580         1.764127        -2.634281
