19
Iteration:  3950
 C         1.316952        -0.567058         0.260717
 C         0.200234         0.236643        -0.230985
 C        -0.924198         0.716718        -0.254991
 C        -2.428756         0.956096        -0.320852
 O        -3.054408         1.227311         0.957816
 C        -3.192037        -0.179589        -0.801521
 C        -4.647926         0.246741        -1.265377
 C        -4.328819        -0.555407        -2.554134
 O        -2.920144        -0.716810        -2.124144
 H         1.032066        -1.669453         0.293297
 H         2.207787        -0.642372        -0.404949
 H         1.767619        -0.194040         1.191395
 H        -2.607259         1.724266        -1.079712
 H        -3.206373         2.205442         1.056104
 H        -3.193494        -0.953273         0.030792
 H        -5.405353        -0.033582        -0.516251
 H        -4.689716         1.325159        -1.521847
 H        -4.896138        -1.470339        -2.417195
 H        -4.444755         0.058173        -3.442145
