19
Iteration:  4143charge 0 multiplicity 1
 C         1.468668        -0.459174        -0.125784
 C         0.168199         0.248635        -0.054025
 C        -1.021304         0.421428         0.048516
 C        -2.370715         0.771072        -0.178859
 O        -3.123049         1.606944         0.774325
 C        -3.417360        -0.275662        -0.664418
 C        -4.624190         0.348021        -1.392901
 C        -4.110201        -0.350157        -2.698563
 O        -2.999176        -0.995699        -1.889555
 H         2.294686         0.143633        -0.289751
 H         1.652704        -1.001916         0.772804
 H         1.313847        -1.176886        -0.980107
 H        -2.473677         1.410742        -1.004293
 H        -2.810843         1.587606         1.658341
 H        -3.818020        -1.080423         0.048342
 H        -5.530057        -0.061496        -0.903650
 H        -4.664625         1.441601        -1.323009
 H        -4.610974        -1.060950        -3.374935
 H        -3.608131         0.336122        -3.430184
