19
Iteration:  3473charge 0 multiplicity 1
 C         1.190850        -0.516482        -0.302261
 C        -0.044176         0.380607        -0.309301
 C        -1.161743         0.764865        -0.042174
 C        -2.619149         0.911437        -0.028547
 O        -3.102027         0.920258         1.375517
 C        -3.381747        -0.152834        -0.689622
 C        -4.535707         0.336804        -1.640928
 C        -3.807562        -0.398231        -2.787048
 O        -2.661341        -0.710757        -1.930131
 H         1.667589        -0.306953         0.592089
 H         0.807570        -1.509988        -0.509134
 H         1.940211        -0.063110        -1.016291
 H        -2.861279         1.958756        -0.359592
 H        -2.630619         0.124990         1.823952
 H        -3.577980        -0.927968        -0.054232
 H        -5.547731         0.068239        -1.345650
 H        -4.475185         1.413092        -1.560294
 H        -4.267515        -1.429879        -2.889820
 H        -3.616416         0.176036        -3.661744
