19
Iteration:  1593charge 0 multiplicity 1
 C         1.377085         0.054915        -0.441127
 C         0.017643        -0.003401         0.043044
 C        -1.166845         0.134020         0.370645
 C        -2.632333         0.420051         0.288180
 O        -3.423784        -0.271834         1.326378
 C        -3.185767        -0.120908        -1.081211
 C        -4.635161         0.312056        -1.543388
 C        -3.880416         0.542026        -2.871462
 O        -2.548268         0.239690        -2.294969
 H         1.500790        -0.417368        -1.405025
 H         1.761518         1.032544        -0.510974
 H         1.976651        -0.460621         0.402574
 H        -2.903335         1.581079         0.402829
 H        -3.417145         0.349652         2.113448
 H        -3.191918        -1.185961        -0.708350
 H        -5.368768        -0.476229        -1.385325
 H        -5.026052         1.213496        -1.065131
 H        -3.914622        -0.068009        -3.810980
 H        -3.685975         1.620294        -3.169934
