19
Iteration:  2068
 C         1.504596        -0.116480        -0.009055
 C         0.076279        -0.073277         0.024163
 C        -1.129287         0.108033         0.200900
 C        -2.514010         0.478436         0.108088
 O        -3.221490         0.345120         1.329894
 C        -3.193668        -0.187957        -1.118365
 C        -4.660167         0.113843        -1.450685
 C        -4.131238         0.346606        -2.896093
 O        -2.774896         0.302380        -2.375042
 H         1.775380         0.575361        -0.767100
 H         2.144033         0.027823         0.872732
 H         1.687387        -1.088437        -0.529569
 H        -2.569557         1.629972        -0.242181
 H        -3.652704        -0.487305         1.416736
 H        -3.060507        -1.301047        -0.838031
 H        -5.286036        -0.625530        -1.017607
 H        -5.014461         1.035017        -0.964022
 H        -4.291382        -0.673366        -3.530131
 H        -4.309447         1.286637        -3.445808
