19
Iteration:  2675charge 0 multiplicity 1
 C         1.496912        -0.360780         0.209766
 C         0.084398         0.082633         0.004535
 C        -1.046516         0.487749        -0.179764
 C        -2.483249         0.739037        -0.139225
 O        -2.947196         0.560861         1.355680
 C        -3.283603        -0.289474        -1.055547
 C        -4.717620         0.042684        -1.333205
 C        -4.216170         0.361003        -2.750658
 O        -2.912625        -0.270814        -2.438228
 H         2.061684        -0.812129        -0.634748
 H         2.119388         0.472574         0.643837
 H         1.343818        -1.164209         0.910840
 H        -2.793711         1.731012        -0.258223
 H        -3.617324         1.323990         1.337626
 H        -3.196236        -1.308249        -0.631391
 H        -5.316845        -0.846574        -1.341963
 H        -5.237063         0.780448        -0.780429
 H        -4.693955        -0.335976        -3.549237
 H        -4.004502         1.521463        -2.919684
