19
Iteration:  1508
 C         1.438750         0.105482        -0.174156
 C         0.016798        -0.029076        -0.037435
 C        -1.158001         0.021973         0.308462
 C        -2.613939         0.341273         0.160265
 O        -3.324146        -0.075035         1.254463
 C        -3.258162        -0.251289        -1.053921
 C        -4.655668         0.205302        -1.571119
 C        -3.927429         0.717271        -2.752014
 O        -2.645657         0.211732        -2.320064
 H         1.914048        -0.804690         0.077710
 H         1.494108         0.389803        -1.319687
 H         1.983093         0.984756         0.278825
 H        -2.625916         1.540002         0.149846
 H        -2.564138        -0.202523         1.919822
 H        -3.380125        -1.361153        -0.981149
 H        -5.477952        -0.504869        -1.692063
 H        -4.979803         0.982095        -0.865585
 H        -4.163462         0.338081        -3.724488
 H        -3.886491         1.862055        -2.815335
