19
Iteration:   431charge 0 multiplicity 1
 C         1.333995         0.248351        -0.166326
 C        -0.040471         0.028821         0.203986
 C        -1.234479         0.188473         0.252872
 C        -2.684247         0.055984         0.295322
 O        -3.145711        -0.855637         1.215006
 C        -3.176122        -0.272089        -1.248585
 C        -4.612146         0.283962        -1.566419
 C        -3.940152         1.127612        -2.737661
 O        -2.614477         0.667287        -2.337745
 H         1.769074        -0.781288        -0.642542
 H         1.408501         1.000845        -0.923647
 H         2.091423         0.236649         0.669902
 H        -3.106214         1.108608         0.635091
 H        -3.222082        -1.752819         0.830092
 H        -2.896461        -1.343791        -1.436394
 H        -5.330466        -0.414660        -1.972817
 H        -5.048818         0.681997        -0.706223
 H        -4.326257         0.855730        -3.737602
 H        -4.017395         2.235917        -2.605442
