19
Iteration:   688
 C         1.449429        -0.392414         0.267168
 C         0.103985         0.163393         0.156263
 C        -1.111300         0.331631         0.112367
 C        -2.578300         0.384581         0.053723
 O        -3.009043        -0.368873         1.231514
 C        -3.031120        -0.158538        -1.355458
 C        -4.572467        -0.245922        -1.632439
 C        -4.417930         0.883534        -2.663901
 O        -2.943870         0.873714        -2.409283
 H         1.600735        -0.617247         1.316335
 H         1.404527        -1.425895        -0.277947
 H         2.214107         0.312054        -0.059096
 H        -2.868530         1.433087         0.099831
 H        -2.200870        -0.814607         1.360064
 H        -2.305896        -0.947141        -1.489769
 H        -5.001569        -1.180636        -2.057429
 H        -5.101784        -0.070305        -0.698942
 H        -4.571619         0.737342        -3.756775
 H        -5.123205         1.677145        -2.314752
