19
Iteration:    25charge 0 multiplicity 1
 C         1.495597        -0.074406         0.312220
 C         0.093924         0.096555        -0.202328
 C        -1.124430         0.045294         0.028582
 C        -2.561121         0.030299         0.011876
 O        -3.038291        -0.986231         0.959437
 C        -3.151440        -0.134330        -1.391820
 C        -4.673436         0.094539        -1.483734
 C        -4.246716         1.334527        -2.306784
 O        -2.840407         1.028110        -2.169420
 H         1.547378        -0.886248         0.963771
 H         2.138951        -0.275604        -0.546961
 H         1.966692         0.934690         0.816068
 H        -2.903220         1.034422         0.422844
 H        -3.536214        -1.694685         0.526158
 H        -2.738044        -1.047569        -1.844656
 H        -5.227591        -0.646414        -2.094392
 H        -5.121917         0.368461        -0.577472
 H        -4.556984         1.317342        -3.419590
 H        -4.582997         2.269375        -1.973830
