19
Iteration:  4308charge 0 multiplicity 1
 C         1.466228        -0.567152         0.328598
 C         0.136057         0.044494         0.084386
 C        -0.853130         0.659500        -0.213297
 C        -2.259901         1.073436        -0.414794
 O        -3.056749         1.565195         0.741050
 C        -3.133713        -0.086668        -0.993943
 C        -4.682176         0.157083        -1.069158
 C        -4.505703        -0.711955        -2.421750
 O        -3.084804        -0.747870        -2.280880
 H         1.641923        -1.366356         1.010250
 H         1.806801        -1.009480        -0.624676
 H         2.116344         0.392115         0.584095
 H        -2.190610         1.875409        -1.196977
 H        -3.391750         0.771979         1.255965
 H        -2.930973        -0.890245        -0.329262
 H        -5.127498        -0.347773        -0.213005
 H        -4.909316         1.205618        -1.071835
 H        -4.982070        -1.634098        -2.589580
 H        -4.869675        -0.116570        -3.273764
