19
Iteration:   756
 C         1.478426        -0.288050         0.023596
 C         0.041077        -0.023345         0.088280
 C        -1.116288         0.279103         0.263533
 C        -2.538754         0.452343         0.120898
 O        -3.178195        -0.431152         1.117527
 C        -3.074921        -0.012115        -1.249205
 C        -4.545000        -0.190188        -1.534952
 C        -4.265924         0.657972        -2.747628
 O        -2.875055         0.943189        -2.299888
 H         1.681974        -1.391167         0.342229
 H         1.955712        -0.162687        -1.011953
 H         1.853214         0.339576         0.751169
 H        -2.782204         1.506138         0.369259
 H        -3.091469         0.085491         1.962358
 H        -2.613528        -0.978395        -1.380150
 H        -4.892510        -1.209420        -1.716865
 H        -5.237368         0.267263        -0.828416
 H        -4.268286        -0.029368        -3.596117
 H        -4.591338         1.641068        -3.016456
