19
Iteration:  4672
 C         1.422363        -0.497104        -0.026169
 C         0.074744        -0.009481        -0.235245
 C        -1.044754         0.513903        -0.051647
 C        -2.428264         0.973207        -0.255057
 O        -3.045992         1.730554         0.824874
 C        -3.375287        -0.206665        -0.708462
 C        -4.620249         0.351025        -1.464534
 C        -4.235902        -0.788309        -2.499762
 O        -2.890858        -0.838682        -1.867805
 H         1.454805        -0.765688         1.027015
 H         1.655533        -1.440214        -0.616284
 H         2.325329         0.187852        -0.115630
 H        -2.327163         1.627215        -1.159675
 H        -2.308566         2.053849         1.350548
 H        -3.519000        -0.884428         0.219513
 H        -5.474642         0.574885        -0.788800
 H        -4.404552         1.344239        -1.835547
 H        -4.834062        -1.736456        -2.407606
 H        -4.185152        -0.497522        -3.564165
