19
Iteration:  3820
 C         1.617513        -0.407568         0.406480
 C         0.285584         0.054344         0.076966
 C        -0.882933         0.384764         0.053350
 C        -2.281793         0.783800        -0.364352
 O        -3.038903         1.532678         0.641905
 C        -3.181906        -0.349039        -0.979392
 C        -4.703593        -0.064781        -0.963009
 C        -4.541742        -0.451954        -2.488367
 O        -3.156685        -0.254151        -2.460781
 H         1.986349         0.185333         1.286196
 H         1.620095        -1.514747         0.521471
 H         2.325306        -0.250099        -0.360310
 H        -2.153502         1.446396        -1.298062
 H        -3.986895         1.188912         0.652482
 H        -3.026851        -1.375322        -0.613788
 H        -5.504418        -0.644147        -0.455823
 H        -4.936345         1.007038        -1.001371
 H        -4.939678        -1.465113        -2.824883
 H        -5.072752         0.359618        -3.187843
