19
Iteration:  1578charge 0 multiplicity 1
 C         1.399354         0.102242        -0.393352
 C        -0.008995        -0.039217        -0.026245
 C        -1.163408         0.033582         0.397667
 C        -2.564667         0.352118         0.263373
 O        -3.408095        -0.176938         1.265390
 C        -3.250238        -0.211588        -0.980039
 C        -4.629221         0.315417        -1.574325
 C        -3.829661         0.600692        -2.869580
 O        -2.573061         0.270003        -2.201560
 H         1.570319        -0.592766        -1.276306
 H         1.561441         1.188669        -0.639003
 H         2.197956        -0.048066         0.301115
 H        -2.533869         1.522858         0.156355
 H        -3.640413         0.509968         1.981924
 H        -3.133425        -1.269572        -1.100168
 H        -5.379391        -0.485902        -1.753509
 H        -5.186740         1.176223        -1.152094
 H        -4.233241        -0.115759        -3.571241
 H        -4.049533         1.526322        -3.227954
