19
Iteration:  2483charge 0 multiplicity 1
 C         1.526876        -0.380984         0.314515
 C         0.154688        -0.012847         0.098058
 C        -0.974559         0.392478        -0.059333
 C        -2.397194         0.722743        -0.101256
 O        -3.143729         0.436907         1.191356
 C        -3.161461        -0.122399        -1.121085
 C        -4.615472        -0.025804        -1.188773
 C        -4.440950         0.115704        -2.767755
 O        -2.936865         0.186169        -2.604311
 H         2.141761         0.234926         0.952473
 H         1.522246        -1.385919         0.577701
 H         2.035843        -0.285455        -0.633692
 H        -2.546606         1.689189        -0.412807
 H        -3.332755         1.259071         1.691308
 H        -2.823221        -1.141637        -0.987701
 H        -5.272262        -0.880692        -0.887568
 H        -4.914971         0.885253        -0.616539
 H        -4.771734        -0.812875        -3.355784
 H        -4.940297         0.970354        -3.292598
