19
Iteration:   207charge 0 multiplicity 1
 C         1.511080        -0.049867         0.196597
 C         0.070854        -0.067272         0.176334
 C        -1.109550        -0.007934        -0.049642
 C        -2.526388         0.107869         0.092534
 O        -2.880578        -0.939810         1.008154
 C        -3.187103        -0.070255        -1.260027
 C        -4.815492         0.155138        -1.667129
 C        -4.236441         1.181109        -2.586075
 O        -2.888515         1.032079        -2.160048
 H         1.955541         0.976670        -0.204659
 H         1.946628        -0.074319         1.274231
 H         2.017620        -0.918215        -0.350428
 H        -2.822874         1.125720         0.557865
 H        -3.649221        -0.699060         1.502834
 H        -2.717111        -1.021241        -1.677446
 H        -5.369857        -0.737380        -2.068467
 H        -5.561681         0.441243        -0.938190
 H        -4.344252         1.013494        -3.646657
 H        -4.714056         2.179213        -2.319677
