19
Iteration:  1386
 C         1.545934        -0.144429         0.400233
 C         0.048654        -0.019205         0.087249
 C        -1.156995         0.262416        -0.085809
 C        -2.552314         0.472257        -0.050335
 O        -2.896149        -0.168554         1.151779
 C        -3.266291        -0.260154        -1.255281
 C        -4.742031         0.020623        -1.525334
 C        -4.276318         0.875567        -2.583868
 O        -2.868447         0.333250        -2.429893
 H         1.669620         0.558066         1.213065
 H         1.735800        -1.185301         0.758793
 H         2.229604        -0.109269        -0.530848
 H        -2.955370         1.648189        -0.043765
 H        -2.163479        -0.039008         1.725231
 H        -3.060115        -1.338918        -1.145292
 H        -5.226899        -0.884228        -1.893803
 H        -5.471315         0.476028        -0.893231
 H        -4.634722         0.582757        -3.517811
 H        -4.186826         1.925202        -2.543475
