19
Iteration:   583charge 0 multiplicity 1
 C         1.631307         0.055316         0.467863
 C         0.207409         0.011473         0.149823
 C        -1.019148        -0.075059         0.001476
 C        -2.515475         0.202551        -0.105696
 O        -3.097618        -0.540422         0.996545
 C        -3.223361        -0.242707        -1.368752
 C        -4.825004         0.074233        -1.473429
 C        -4.373590         1.067851        -2.549775
 O        -2.881458         0.738157        -2.405965
 H         2.002089         1.126583         0.481457
 H         1.736351        -0.327125         1.405360
 H         2.232265        -0.565539        -0.072259
 H        -2.475631         1.233873        -0.056790
 H        -2.501640        -0.511532         1.802758
 H        -3.007406        -1.293097        -1.599031
 H        -5.408454        -0.742611        -1.909268
 H        -5.310881         0.503879        -0.609265
 H        -4.791715         0.881804        -3.548413
 H        -4.488546         2.154329        -2.285990
