19
Iteration:  3439
 C         1.172550        -0.490115        -0.345420
 C        -0.046463         0.252163        -0.029801
 C        -1.152564         0.818744        -0.104590
 C        -2.603756         1.060749         0.064999
 O        -2.959452         0.914747         1.504796
 C        -3.378032        -0.020974        -0.804215
 C        -4.640832         0.194849        -1.762092
 C        -3.833070        -0.426626        -2.837563
 O        -2.696595        -0.703367        -1.980423
 H         2.041055        -0.171200         0.129341
 H         1.321142        -1.595745        -0.184961
 H         1.290609        -0.412587        -1.433939
 H        -2.865681         2.128864        -0.099315
 H        -2.992897        -0.049857         1.782959
 H        -3.542663        -0.630113        -0.006511
 H        -5.501226        -0.301561        -1.380585
 H        -4.791408         1.243703        -1.823914
 H        -4.156574        -1.471675        -3.214791
 H        -3.602378        -0.012672        -3.778738
