19
Iteration:  2086
 C         1.521251        -0.195669        -0.154656
 C         0.093736         0.094856         0.133048
 C        -1.075883         0.221310         0.301514
 C        -2.542229         0.511156         0.086944
 O        -3.219572         0.246847         1.335922
 C        -3.234862        -0.239810        -1.068106
 C        -4.712146         0.239395        -1.459472
 C        -4.113409         0.287212        -2.888720
 O        -2.734253         0.223486        -2.381841
 H         2.044159         0.684555        -0.604196
 H         1.915425        -0.450546         0.805846
 H         1.854408        -1.104780        -0.741048
 H        -2.699234         1.519702        -0.070299
 H        -3.688657        -0.516184         1.093825
 H        -3.185495        -1.333100        -1.019305
 H        -5.660529        -0.381337        -1.469158
 H        -5.111486         1.240421        -1.171088
 H        -4.191287        -0.617371        -3.475969
 H        -4.338958         1.179968        -3.472864
