19
Iteration:  1169
 C         1.363797        -0.458253         0.084525
 C        -0.005441         0.016147         0.152876
 C        -1.078166         0.673693         0.065419
 C        -2.659936         0.549044         0.158361
 O        -3.092128        -0.309565         1.189240
 C        -3.059621        -0.082587        -1.205991
 C        -4.532509        -0.071274        -1.436480
 C        -4.212566         0.463943        -2.876081
 O        -2.854908         0.775000        -2.345086
 H         1.501192        -1.368481        -0.355456
 H         2.097659         0.179239        -0.521026
 H         1.693889        -0.666850         1.096930
 H        -3.140890         1.529099         0.295033
 H        -2.359875        -1.012117         1.315642
 H        -2.609896        -1.147536        -1.164588
 H        -4.885933        -1.090070        -1.427526
 H        -5.062611         0.647156        -0.842552
 H        -4.176513        -0.249729        -3.711902
 H        -4.785784         1.425633        -2.969476
