19
Iteration:   680charge 0 multiplicity 1
 C         1.498599        -0.370390         0.278920
 C         0.110330         0.114399         0.238701
 C        -1.067870         0.395807         0.080011
 C        -2.588536         0.397311         0.082554
 O        -3.016561        -0.388310         1.210643
 C        -3.038951        -0.131030        -1.381851
 C        -4.596317        -0.265815        -1.601941
 C        -4.445691         0.915288        -2.650963
 O        -2.975390         0.823001        -2.466211
 H         1.853622        -0.528831         1.374607
 H         1.489409        -1.379536        -0.198655
 H         2.255775         0.136628        -0.209321
 H        -3.004849         1.446829         0.193844
 H        -2.426800        -1.110103         1.473446
 H        -2.345114        -0.855494        -1.746209
 H        -4.928838        -1.247314        -1.995433
 H        -5.182284        -0.024971        -0.709920
 H        -4.582258         0.828622        -3.665867
 H        -4.811849         1.887307        -2.443511
