19
Iteration:  3482
 C         1.185902        -0.432917        -0.312257
 C        -0.011595         0.342245        -0.319342
 C        -1.189948         0.654685        -0.151251
 C        -2.581267         0.966850         0.015630
 O        -3.195664         0.935156         1.391139
 C        -3.396764        -0.193777        -0.688971
 C        -4.502934         0.386574        -1.547810
 C        -3.799244        -0.408750        -2.751442
 O        -2.613790        -0.717439        -1.953218
 H         1.488054        -0.545223         0.707605
 H         1.010619        -1.511557        -0.547141
 H         1.932349        -0.083907        -0.909428
 H        -2.851960         1.877841        -0.492102
 H        -2.448510         0.404893         1.841042
 H        -3.524547        -1.065170        -0.068940
 H        -5.536941         0.150857        -1.483218
 H        -4.503276         1.456310        -1.642424
 H        -4.487162        -1.293723        -3.093361
 H        -3.663722         0.116612        -3.703758
