19
Iteration:  1080charge 0 multiplicity 1
 C         1.442331        -0.003047        -0.083808
 C         0.035856        -0.107595        -0.051853
 C        -1.135975         0.072617         0.217444
 C        -2.558459         0.420215         0.107607
 O        -3.379249        -0.079678         1.179584
 C        -3.122248        -0.267013        -1.161298
 C        -4.662717         0.035033        -1.427940
 C        -4.027906         0.703270        -2.711578
 O        -2.666826         0.521823        -2.265998
 H         1.927722        -0.653038         0.544346
 H         1.828334        -0.177316        -1.122377
 H         1.621540         1.110501         0.168375
 H        -2.826587         1.493632         0.200553
 H        -2.990874        -0.955031         1.466658
 H        -2.887911        -1.349280        -1.247105
 H        -5.281768        -0.807117        -1.601761
 H        -5.118723         0.778002        -0.799837
 H        -4.156467         0.221041        -3.681794
 H        -4.122797         1.781548        -2.670004
