19
Iteration:   296
 C         1.402140         0.034895        -0.356785
 C         0.010847        -0.003485         0.199347
 C        -1.177162         0.172338         0.381234
 C        -2.645474         0.127496         0.313871
 O        -3.390811        -0.956989         1.002881
 C        -3.055601        -0.018058        -1.174916
 C        -4.501022         0.070905        -1.513651
 C        -4.070957         1.023984        -2.708095
 O        -2.631555         1.002301        -2.186281
 H         2.071054         0.490184         0.482527
 H         1.753926        -1.027530        -0.512836
 H         1.471833         0.690898        -1.177816
 H        -2.968299         1.131558         0.771772
 H        -3.432603        -1.598247         0.300301
 H        -2.459678        -0.929986        -1.388115
 H        -5.069238        -0.867575        -1.539063
 H        -5.095004         0.538814        -0.795360
 H        -3.994828         0.665667        -3.718883
 H        -4.564393         2.039653        -2.633959
