19
Iteration:  3165
 C         1.505673        -0.263815         0.626564
 C         0.295100         0.172885        -0.088484
 C        -0.891101         0.469615        -0.248039
 C        -2.397039         0.751424        -0.437172
 O        -2.897506         0.751158         0.981473
 C        -3.242911        -0.308865        -1.041138
 C        -4.795541        -0.022621        -1.113776
 C        -4.494432         0.132856        -2.607253
 O        -3.074477        -0.375800        -2.431419
 H         1.095849        -0.736977         1.536211
 H         2.121769        -0.999255         0.045386
 H         2.354092         0.500539         0.861354
 H        -2.463520         1.738774        -0.832457
 H        -3.544099         1.514967         1.107573
 H        -3.032847        -1.254227        -0.437591
 H        -5.392648        -0.906641        -0.822107
 H        -5.053021         0.802419        -0.493682
 H        -5.026779        -0.292112        -3.422060
 H        -4.348096         1.206169        -2.923671
