19
Iteration:  2372charge 0 multiplicity 1
 C         1.467977        -0.342321         0.158315
 C         0.059821        -0.016025        -0.045743
 C        -1.091062         0.408464        -0.219870
 C        -2.588488         0.674674         0.007237
 O        -2.992752         0.483906         1.337371
 C        -3.261325        -0.311396        -1.019753
 C        -4.720108        -0.122673        -1.419558
 C        -4.130774         0.396074        -2.749791
 O        -2.767985         0.095753        -2.298273
 H         1.893484        -0.229954        -0.881499
 H         1.857020         0.482020         0.713222
 H         1.746226        -1.292249         0.518680
 H        -2.897445         1.644919        -0.494911
 H        -3.957603         0.649042         1.310955
 H        -2.947579        -1.332027        -0.788227
 H        -5.445534        -0.956535        -1.535970
 H        -5.266825         0.634989        -0.808103
 H        -4.581803         0.079374        -3.804484
 H        -4.138347         1.566751        -2.846983
