19
Iteration:  4480charge 0 multiplicity 1
 C         1.426720        -0.306040         0.538290
 C         0.255188         0.282743        -0.061986
 C        -0.920321         0.471744        -0.410840
 C        -2.271711         0.833659        -0.595074
 O        -2.718260         1.527946         0.664289
 C        -3.289836        -0.325004        -0.805689
 C        -4.773112         0.195188        -1.103939
 C        -4.513163        -0.367695        -2.496858
 O        -3.254554        -0.980653        -2.113180
 H         2.402659        -0.321608        -0.074337
 H         1.551813         0.200756         1.493115
 H         1.189247        -1.278883         0.946117
 H        -2.390593         1.618666        -1.387310
 H        -2.136796         1.324877         1.397030
 H        -3.195987        -1.126707         0.048122
 H        -5.461608        -0.443719        -0.540588
 H        -5.076588         1.220136        -0.861367
 H        -5.118473        -1.159302        -3.037464
 H        -4.253507         0.560500        -3.061773
