19
Iteration:  2827
 C         1.420365        -0.277510        -0.303206
 C         0.026084         0.053187        -0.021392
 C        -1.141014         0.373993         0.194243
 C        -2.538123         0.653647         0.096891
 O        -3.297162         0.688677         1.261207
 C        -3.301744        -0.348868        -0.910163
 C        -4.568329         0.345693        -1.378334
 C        -3.977299         0.137395        -2.875343
 O        -2.706898        -0.394770        -2.238291
 H         1.974638        -0.095208         0.647372
 H         1.629140        -1.145790        -0.907489
 H         1.893695         0.684968        -0.894394
 H        -2.685584         1.530520        -0.530729
 H        -3.180475         1.554433         1.793122
 H        -3.434820        -1.394702        -0.531405
 H        -5.575575        -0.022308        -1.103991
 H        -4.471116         1.397328        -0.955115
 H        -4.359799        -0.673270        -3.500466
 H        -3.857545         0.958365        -3.471949
