19
Iteration:  3537
 C         1.430688        -0.230970        -0.347314
 C         0.013704        -0.007255        -0.007048
 C        -1.116474         0.412178         0.113290
 C        -2.487811         0.848330        -0.003899
 O        -3.083609         1.061575         1.286060
 C        -3.454312        -0.077942        -0.770894
 C        -4.738385         0.273239        -1.628178
 C        -3.933910        -0.376451        -2.852582
 O        -2.795572        -0.634930        -1.966774
 H         1.975198        -0.978233         0.240689
 H         1.630637        -0.398156        -1.448621
 H         2.011009         0.631427        -0.145283
 H        -2.425759         1.736070        -0.619539
 H        -2.647519         1.902696         1.556082
 H        -3.565555        -1.006159        -0.079376
 H        -5.589148        -0.321611        -1.399351
 H        -4.889502         1.307523        -1.838592
 H        -4.317296        -1.420669        -3.197588
 H        -3.771790         0.383278        -3.661118
