19
Iteration:  4027charge 0 multiplicity 1
 C         1.407410        -0.464466         0.008639
 C         0.047841         0.130436        -0.129942
 C        -1.121503         0.430323        -0.156079
 C        -2.530077         0.895941        -0.276360
 O        -2.818024         1.500255         0.981624
 C        -3.525126        -0.198784        -0.687904
 C        -4.819213         0.140440        -1.519004
 C        -3.987349        -0.454292        -2.622290
 O        -2.868258        -0.740901        -1.855352
 H         1.740570        -0.926242        -1.002792
 H         2.254629         0.272099         0.207127
 H         1.320013        -1.280533         0.744915
 H        -2.577680         1.748426        -1.069157
 H        -1.995078         1.889925         1.207065
 H        -3.579065        -0.843450         0.235518
 H        -5.617800        -0.401744        -1.024069
 H        -5.053836         1.203732        -1.627777
 H        -4.435488        -1.208257        -3.286268
 H        -3.830039         0.409028        -3.268151
