19
Iteration:  2584
 C         1.573168        -0.255781         0.319994
 C         0.142443        -0.130858         0.058319
 C        -1.011177         0.250387         0.104574
 C        -2.420256         0.744705        -0.073065
 O        -3.020462         0.691057         1.154566
 C        -3.161503        -0.233605        -1.163926
 C        -4.707998         0.026484        -1.245887
 C        -4.459731         0.121816        -2.774584
 O        -2.963589         0.089255        -2.616534
 H         1.880531        -1.174785         0.756835
 H         2.105789        -0.212780        -0.561843
 H         1.862675         0.736140         0.860168
 H        -2.440252         1.714475        -0.469520
 H        -3.414553        -0.129835         1.391446
 H        -3.011861        -1.290476        -0.808086
 H        -5.342543        -0.785963        -0.800960
 H        -4.921438         0.960296        -0.614349
 H        -4.796171        -0.890659        -3.156812
 H        -4.724347         1.084958        -3.392465
