19
Iteration:   328
 C         1.276756         0.153108        -0.398677
 C        -0.025260        -0.012830         0.219714
 C        -1.206106        -0.034079         0.465729
 C        -2.640861         0.152375         0.296817
 O        -3.198948        -0.879254         1.105782
 C        -3.092037        -0.141080        -1.230101
 C        -4.610693         0.065672        -1.643103
 C        -3.950314         1.082189        -2.731039
 O        -2.612263         0.983699        -2.075232
 H         2.001633        -0.103391         0.363009
 H         1.518309        -0.590916        -1.221531
 H         1.435911         1.104423        -0.851255
 H        -2.882925         1.255447         0.330885
 H        -3.997485        -1.154814         0.569625
 H        -2.575911        -1.100058        -1.500834
 H        -5.237501        -0.843530        -1.900459
 H        -5.128561         0.680700        -0.812937
 H        -3.848917         0.534974        -3.690370
 H        -4.405825         2.112616        -2.967265
