19
Iteration:  2853
 C         1.415574        -0.230666        -0.302070
 C         0.024941         0.098070        -0.008567
 C        -1.166826         0.271617         0.138094
 C        -2.523951         0.681636         0.052027
 O        -3.216309         0.702934         1.317338
 C        -3.358180        -0.159738        -0.880891
 C        -4.685872         0.298655        -1.508757
 C        -3.970586         0.033047        -2.896913
 O        -2.671427        -0.325804        -2.124186
 H         1.789335        -0.815263         0.615769
 H         1.409289        -0.906111        -1.209973
 H         2.128328         0.546275        -0.439546
 H        -2.565392         1.751423        -0.520870
 H        -2.494668         0.507341         2.024790
 H        -3.455369        -1.138017        -0.376962
 H        -5.555498        -0.348278        -1.416831
 H        -4.865446         1.291352        -1.236760
 H        -4.232216        -0.952173        -3.400467
 H        -3.869688         0.880386        -3.696735
