19
Iteration:  3868charge 0 multiplicity 1
 C         1.548393        -0.346313         0.234488
 C         0.057370        -0.196104         0.220995
 C        -1.056544         0.246967        -0.087716
 C        -2.377180         0.922416        -0.319083
 O        -2.879097         1.715141         0.797462
 C        -3.209261        -0.190895        -0.971749
 C        -4.704189        -0.097288        -1.091439
 C        -4.471418        -0.628117        -2.546537
 O        -2.986495        -0.275475        -2.410362
 H         1.926514        -0.437035         1.255273
 H         1.932854        -1.127356        -0.475359
 H         2.104030         0.634574        -0.100939
 H        -2.124605         1.693142        -1.136925
 H        -3.381181         1.180644         1.404492
 H        -2.942362        -1.125020        -0.507243
 H        -5.268457        -0.671462        -0.320550
 H        -5.091138         0.934576        -1.114260
 H        -4.728452        -1.670516        -2.639220
 H        -5.110494        -0.184766        -3.309529
