19
Iteration:  4281charge 0 multiplicity 1
 C         1.318368        -0.607385         0.303262
 C         0.160047         0.292147         0.054750
 C        -0.930579         0.696403        -0.241611
 C        -2.328399         1.039023        -0.449469
 O        -2.857808         1.406772         0.765041
 C        -3.244711        -0.159239        -0.891216
 C        -4.742573         0.210770        -1.166666
 C        -4.500062        -0.721519        -2.417016
 O        -2.935535        -0.678823        -2.231833
 H         1.443077        -1.078024         1.376141
 H         1.361592        -1.460150        -0.420759
 H         2.168130         0.043796         0.266514
 H        -2.346745         1.784236        -1.235796
 H        -2.599572         0.671638         1.392547
 H        -3.218926        -1.038079        -0.117894
 H        -5.559576         0.039940        -0.446583
 H        -4.587931         1.290990        -1.373430
 H        -4.892898        -1.778292        -2.401216
 H        -4.940940        -0.339079        -3.360658
