19
Iteration:  3547
 C         1.440761        -0.167261        -0.339094
 C         0.086241        -0.013044         0.077954
 C        -1.079684         0.272776         0.050749
 C        -2.498060         0.828531        -0.037260
 O        -3.103804         1.130942         1.289093
 C        -3.455304        -0.090427        -0.778601
 C        -4.697090         0.250854        -1.594115
 C        -3.996195        -0.377938        -2.835555
 O        -2.790252        -0.621002        -2.036280
 H         1.867641        -1.138808         0.151909
 H         1.449289        -0.237326        -1.489607
 H         1.972192         0.622798         0.045907
 H        -2.378740         1.779711        -0.496542
 H        -2.822143         1.976852         1.615512
 H        -3.887210        -0.815945         0.072376
 H        -5.534915        -0.263137        -1.163537
 H        -5.092884         1.249020        -1.711216
 H        -4.387292        -1.286353        -3.405304
 H        -3.578240         0.267293        -3.642058
