19
Iteration:  3583charge 0 multiplicity 1
 C         1.457605        -0.096642        -0.160150
 C         0.060602         0.031133        -0.029788
 C        -1.117157         0.242318         0.161942
 C        -2.433843         0.718211        -0.122038
 O        -3.116272         1.183056         1.044919
 C        -3.422867        -0.317278        -0.801518
 C        -4.645217         0.315142        -1.428177
 C        -4.079668        -0.290598        -2.752484
 O        -2.827731        -0.602499        -2.087715
 H         1.698268        -1.109667        -0.316745
 H         1.838406         0.419549        -1.033213
 H         2.101297         0.296653         0.673161
 H        -2.477944         1.432684        -0.943358
 H        -2.509555         1.815885         1.385016
 H        -3.649344        -1.270034        -0.197366
 H        -5.478889        -0.146958        -0.900659
 H        -4.512843         1.391878        -1.321152
 H        -4.826613        -1.143056        -3.096416
 H        -4.006114         0.552200        -3.436867
