19
Iteration:  4739charge 0 multiplicity 1
 C         1.199842        -0.549335        -0.029736
 C        -0.117636         0.017161         0.067704
 C        -1.041686         0.639675        -0.384604
 C        -2.428950         1.139380        -0.352758
 O        -2.663858         1.802553         0.944112
 C        -3.360267        -0.129066        -0.705227
 C        -4.722786         0.166088        -1.468812
 C        -4.157960        -0.836944        -2.566916
 O        -2.842434        -0.861554        -1.805391
 H         1.080467        -1.566711         0.299366
 H         1.543977        -0.447551        -1.074967
 H         2.012844        -0.171366         0.604703
 H        -2.702994         1.905820        -1.108789
 H        -2.607849         1.043823         1.620540
 H        -3.568825        -0.795384         0.167000
 H        -5.652363        -0.348772        -1.148100
 H        -5.027303         1.196542        -1.647168
 H        -4.594213        -1.878109        -2.523315
 H        -3.905922        -0.569708        -3.586403
