19
Iteration:  2893
 C         1.386014        -0.314159        -0.223450
 C        -0.011366         0.004921        -0.083462
 C        -1.121805         0.484247         0.024675
 C        -2.597783         0.799325         0.105156
 O        -2.991293         0.717165         1.465210
 C        -3.399638        -0.176123        -0.912024
 C        -4.723845         0.238574        -1.594743
 C        -3.968770        -0.105080        -2.961330
 O        -2.668800        -0.241815        -2.144906
 H         1.647098        -1.290559         0.190280
 H         1.809331        -0.104568        -1.183537
 H         1.939340         0.373656         0.572597
 H        -2.739724         1.806514        -0.037693
 H        -3.524585        -0.033204         1.613762
 H        -3.542437        -1.138904        -0.354415
 H        -5.525288        -0.392970        -1.172967
 H        -5.123762         1.277199        -1.382749
 H        -4.325887        -1.062660        -3.326731
 H        -3.885796         0.549237        -3.757229
