19
Iteration:  2816
 C         1.441771        -0.198360        -0.296552
 C         0.045974         0.001554        -0.006022
 C        -1.108134         0.355235         0.140081
 C        -2.534338         0.629902         0.045365
 O        -3.380275         0.687387         1.310730
 C        -3.236117        -0.313953        -0.903923
 C        -4.523198         0.331412        -1.348017
 C        -4.008419         0.193152        -2.865917
 O        -2.728020        -0.439062        -2.255410
 H         2.070644        -0.199657         0.630566
 H         1.559637        -1.269530        -0.498186
 H         1.861981         0.433153        -1.247504
 H        -2.473459         1.684048        -0.291256
 H        -3.498915         1.672640         1.374094
 H        -3.252399        -1.306987        -0.368920
 H        -5.503986        -0.164467        -1.180730
 H        -4.630885         1.433530        -1.117962
 H        -4.577902        -0.549240        -3.426287
 H        -3.845555         1.052683        -3.394209
