19
Iteration:   575charge 0 multiplicity 1
 C         1.583311         0.100294         0.454045
 C         0.157214        -0.030266         0.202374
 C        -1.019981        -0.080328        -0.077235
 C        -2.458741         0.131113        -0.057132
 O        -3.043711        -0.544429         0.971743
 C        -3.307890        -0.193290        -1.334085
 C        -4.801124         0.122568        -1.507359
 C        -4.373954         1.063450        -2.578990
 O        -2.884104         0.695384        -2.343623
 H         2.085052         1.090768         0.304006
 H         1.692303        -0.064783         1.557515
 H         2.257796        -0.606829        -0.195850
 H        -2.459138         1.305823        -0.042677
 H        -2.487783        -0.321166         1.808750
 H        -3.020466        -1.220257        -1.674762
 H        -5.316181        -0.713566        -1.940432
 H        -5.367348         0.327101        -0.608399
 H        -4.588358         0.985537        -3.700398
 H        -4.392163         2.183583        -2.258024
