19
Iteration:  2419charge 0 multiplicity 1
 C         1.390238        -0.474046         0.227254
 C         0.127087         0.252949         0.055182
 C        -1.070660         0.552141        -0.074652
 C        -2.488820         0.757620        -0.072064
 O        -2.945302         0.380969         1.350988
 C        -3.119967        -0.255523        -1.107810
 C        -4.647289        -0.095205        -1.315808
 C        -4.316056         0.346717        -2.749471
 O        -2.910687        -0.001761        -2.574062
 H         2.347587        -0.131570        -0.153725
 H         1.514692        -0.671524         1.234351
 H         1.079643        -1.474390        -0.244375
 H        -2.558963         1.876275        -0.415486
 H        -3.969423         0.277993         1.375492
 H        -2.753904        -1.235874        -0.767284
 H        -5.387516        -0.932965        -1.146676
 H        -4.972600         0.722410        -0.636526
 H        -4.649160        -0.212208        -3.662297
 H        -4.527108         1.469148        -3.039603
