19
Iteration:  4597
 C         1.566740        -0.438631         0.102078
 C         0.221596         0.064427         0.051353
 C        -0.933665         0.532737         0.042367
 C        -2.316718         0.891213        -0.376561
 O        -2.973925         1.641768         0.738175
 C        -3.404519        -0.185319        -0.833313
 C        -4.759727         0.300713        -1.334356
 C        -4.402745        -0.656297        -2.581190
 O        -3.090391        -0.919917        -1.979487
 H         2.147063         0.324093         0.688508
 H         1.708962        -1.481035         0.396190
 H         2.037931        -0.545567        -0.887763
 H        -2.081906         1.522860        -1.264510
 H        -2.206235         2.214037         1.006840
 H        -3.553811        -0.699350         0.113225
 H        -5.717192         0.067099        -0.795923
 H        -4.851104         1.367317        -1.516767
 H        -4.914642        -1.596424        -2.731445
 H        -4.288014        -0.063244        -3.458927
