19
Iteration:  2857
 C         1.412109        -0.257518        -0.298485
 C         0.044936         0.119577         0.003539
 C        -1.171202         0.244727         0.099337
 C        -2.531295         0.726187         0.084725
 O        -3.190746         0.710508         1.330942
 C        -3.372750        -0.148848        -0.885078
 C        -4.696292         0.281123        -1.534959
 C        -3.966392         0.012788        -2.917694
 O        -2.675473        -0.318128        -2.128288
 H         1.763612        -0.884177         0.482470
 H         1.537531        -0.867867        -1.202055
 H         2.043236         0.643879        -0.354866
 H        -2.624240         1.728940        -0.401168
 H        -2.664815         0.386660         2.039473
 H        -3.507213        -1.100360        -0.349283
 H        -5.519145        -0.441626        -1.255790
 H        -4.894510         1.363993        -1.182329
 H        -4.180540        -0.920260        -3.407198
 H        -3.816284         0.839470        -3.682704
