19
Iteration:  4296charge 0 multiplicity 1
 C         1.417971        -0.566946         0.296774
 C         0.148526         0.128978         0.116996
 C        -0.867127         0.705191        -0.196732
 C        -2.276656         1.078159        -0.520314
 O        -2.967957         1.452163         0.743872
 C        -3.156304        -0.113537        -0.899769
 C        -4.653986         0.154259        -1.170099
 C        -4.513225        -0.678750        -2.406296
 O        -3.094394        -0.700312        -2.225702
 H         1.282645        -1.148874         1.214010
 H         1.575766        -1.225773        -0.566408
 H         2.420724         0.021638         0.405383
 H        -2.462515         1.993294        -1.107352
 H        -3.177661         0.583076         1.202808
 H        -2.928784        -0.871519        -0.160082
 H        -5.334466        -0.292366        -0.430738
 H        -5.044478         1.135159        -1.362654
 H        -4.897143        -1.655638        -2.215435
 H        -4.712315        -0.270880        -3.401859
