19
Iteration:  3622
 C         1.634505        -0.214524         0.117268
 C         0.190979         0.177303        -0.020834
 C        -1.012750         0.319799        -0.055518
 C        -2.405378         0.763311        -0.228841
 O        -3.222329         1.247984         0.932434
 C        -3.303296        -0.326699        -0.852926
 C        -4.620141         0.228534        -1.229342
 C        -4.299948        -0.171843        -2.663749
 O        -2.999426        -0.745368        -2.217775
 H         1.856654        -0.952335        -0.747213
 H         2.201684         0.708866        -0.251424
 H         1.930786        -0.461187         1.122772
 H        -2.288536         1.672516        -0.858111
 H        -2.921695         0.888006         1.821270
 H        -3.330992        -1.221602        -0.245278
 H        -5.516837        -0.247575        -0.810335
 H        -4.810632         1.287352        -1.167267
 H        -4.767663        -0.915949        -3.189807
 H        -4.110879         0.649652        -3.374820
