19
Iteration:  2462
 C         1.442669        -0.431668         0.259986
 C         0.110859         0.023593         0.152247
 C        -0.990428         0.564417         0.038112
 C        -2.444200         0.799233        -0.215474
 O        -3.031094         0.332658         1.042238
 C        -3.086525        -0.225786        -1.121209
 C        -4.647774        -0.002560        -1.194205
 C        -4.364072         0.168343        -2.667798
 O        -2.952923         0.124647        -2.488069
 H         2.179615         0.282156         0.579373
 H         1.439684        -1.231184         0.884468
 H         1.883429        -0.709915        -0.712558
 H        -2.794635         1.786820        -0.328786
 H        -3.645887         1.070723         1.347872
 H        -2.650291        -1.209538        -0.990871
 H        -5.321149        -0.854157        -0.862036
 H        -5.074575         0.943548        -0.752123
 H        -4.957176        -0.577847        -3.343111
 H        -4.643207         1.200139        -3.186561
