19
Iteration:  2556
 C         1.578567        -0.194026         0.313177
 C         0.155281        -0.152589         0.188514
 C        -0.994162         0.099648        -0.109950
 C        -2.393635         0.625317        -0.089710
 O        -3.014279         0.765939         1.237847
 C        -3.218232        -0.222989        -1.099492
 C        -4.733677        -0.009211        -1.310644
 C        -4.423050         0.026680        -2.831095
 O        -2.988430         0.307565        -2.528536
 H         2.080891        -0.752112         1.220131
 H         1.793222        -0.816833        -0.689107
 H         2.007622         0.782392         0.344684
 H        -2.376603         1.663592        -0.660992
 H        -3.389015        -0.020396         1.569834
 H        -3.091743        -1.292318        -0.778524
 H        -5.199966        -0.839802        -0.805169
 H        -5.121256         0.893106        -0.913628
 H        -4.600351        -0.884728        -3.375506
 H        -4.801220         0.798923        -3.464372
