19
Iteration:  1719charge 0 multiplicity 1
 C         1.417209        -0.183926         0.042583
 C        -0.058649        -0.012450        -0.039553
 C        -1.174089         0.373256        -0.006282
 C        -2.647061         0.455491         0.158088
 O        -3.090649        -0.171650         1.331681
 C        -3.276339        -0.176928        -1.059299
 C        -4.683398         0.135072        -1.555074
 C        -4.035558         0.516383        -2.867183
 O        -2.648765         0.491126        -2.224659
 H         1.899545         0.746337        -0.245443
 H         1.719765        -0.649550         1.032127
 H         1.733103        -0.836877        -0.671729
 H        -3.000230         1.465209         0.009516
 H        -2.352489        -0.836078         1.605422
 H        -2.956146        -1.243067        -1.248590
 H        -5.414538        -0.689687        -1.662521
 H        -5.171396         1.008332        -1.096456
 H        -4.113348        -0.189204        -3.721419
 H        -4.110318         1.594958        -3.248862
