19
Iteration:  3526charge 0 multiplicity 1
 C         1.439709        -0.257568        -0.329739
 C        -0.012773         0.009699        -0.132440
 C        -1.138474         0.494450         0.131074
 C        -2.536847         0.931859        -0.014413
 O        -3.078089         1.023476         1.281432
 C        -3.422008        -0.198742        -0.797021
 C        -4.697301         0.276467        -1.693350
 C        -3.902535        -0.352458        -2.753031
 O        -2.766648        -0.627737        -1.935410
 H         1.813572        -1.034762         0.358902
 H         1.480800        -0.766640        -1.344397
 H         1.902088         0.660869        -0.333458
 H        -2.640871         1.882472        -0.515918
 H        -2.619377         1.706773         1.877069
 H        -3.686351        -1.022099        -0.014747
 H        -5.673395        -0.047675        -1.434858
 H        -4.829509         1.332753        -1.642396
 H        -4.427598        -1.326071        -3.167093
 H        -3.649692         0.195418        -3.700401
