19
Iteration:  1667
 C         1.295113        -0.261353        -0.199300
 C        -0.060113         0.281421        -0.003050
 C        -1.291470         0.531991         0.054166
 C        -2.664685         0.465226         0.317643
 O        -3.086714        -0.355675         1.497246
 C        -3.302974        -0.112205        -1.054133
 C        -4.637214         0.211942        -1.625739
 C        -3.847670         0.558674        -2.927523
 O        -2.596688         0.299408        -2.274459
 H         1.814657         0.061669        -1.173355
 H         1.905558         0.025375         0.702604
 H         1.244913        -1.411079        -0.164098
 H        -3.020612         1.434176         0.388090
 H        -2.560810        -1.214180         1.490926
 H        -3.210841        -1.193042        -1.040738
 H        -5.463118        -0.508084        -1.628808
 H        -5.071378         1.137862        -1.220194
 H        -3.863547        -0.244739        -3.677874
 H        -3.820734         1.468881        -3.436843
