19
Iteration:    46charge 0 multiplicity 1
 C         1.500868        -0.064997         0.358694
 C         0.086054         0.048966        -0.039080
 C        -1.097284         0.096990        -0.264863
 C        -2.515563         0.045324         0.044035
 O        -2.980070        -0.998677         0.966437
 C        -3.169670        -0.202729        -1.365786
 C        -4.686987         0.073338        -1.469965
 C        -4.301135         1.406316        -2.292306
 O        -2.836084         1.006640        -2.251876
 H         1.536803        -1.040659         0.734643
 H         2.345273         0.089409        -0.278260
 H         1.534312         0.583888         1.238325
 H        -2.802310         1.035555         0.417399
 H        -3.895203        -1.052928         0.694277
 H        -2.779997        -1.139973        -1.766509
 H        -5.279687        -0.734199        -1.994466
 H        -5.168258         0.252294        -0.563773
 H        -4.770654         1.488113        -3.293680
 H        -4.535223         2.302759        -1.750660
