19
Iteration:  1913
 C         1.405653        -0.392675         0.548767
 C         0.052847         0.077618         0.129578
 C        -1.019385         0.510747        -0.252896
 C        -2.506267         0.606994        -0.149075
 O        -2.939796         0.081367         1.180517
 C        -3.116717        -0.202455        -1.240008
 C        -4.610999        -0.132298        -1.256129
 C        -4.375668         0.668525        -2.610113
 O        -2.972172         0.265084        -2.661507
 H         1.410561        -1.452618         0.783569
 H         2.142986        -0.178766        -0.271234
 H         1.621907         0.240049         1.555636
 H        -2.755565         1.645987        -0.253683
 H        -2.405300        -0.792065         1.317225
 H        -2.680991        -1.240635        -1.130783
 H        -5.147731        -1.064957        -1.464699
 H        -4.944926         0.480179        -0.396180
 H        -4.932991         0.291200        -3.505838
 H        -4.759080         1.661589        -2.468675
