19
Iteration:  3624charge 0 multiplicity 1
 C         1.645368        -0.231251         0.132612
 C         0.188068         0.183309        -0.008039
 C        -1.012103         0.326834        -0.065146
 C        -2.406325         0.762189        -0.231885
 O        -3.211649         1.246226         0.924147
 C        -3.286954        -0.306521        -0.875314
 C        -4.628531         0.215342        -1.220629
 C        -4.312195        -0.161257        -2.668362
 O        -3.011663        -0.747738        -2.208869
 H         1.848255        -0.896765        -0.784278
 H         2.224883         0.732039        -0.227375
 H         1.947473        -0.448771         1.119463
 H        -2.337030         1.689052        -0.841228
 H        -2.901374         0.815679         1.776512
 H        -3.339275        -1.225053        -0.136869
 H        -5.505190        -0.315820        -0.840886
 H        -4.819403         1.266516        -1.180565
 H        -4.779125        -0.956207        -3.188228
 H        -4.112601         0.660490        -3.372974
