19
Iteration:   166
 C         1.604895        -0.098701         0.402531
 C         0.174260        -0.012942         0.071736
 C        -1.031167         0.119797        -0.075348
 C        -2.477732         0.066070         0.002333
 O        -3.106217        -0.912032         0.974923
 C        -3.122640        -0.162050        -1.469314
 C        -4.686146         0.156506        -1.389750
 C        -4.407103         1.209174        -2.367847
 O        -2.922628         0.991804        -2.350698
 H         2.214727         0.423313        -0.455747
 H         1.694952         0.601491         1.258997
 H         1.942323        -0.972629         0.726898
 H        -2.770841         1.041089         0.330335
 H        -3.847125        -1.334747         0.368537
 H        -2.893586        -1.135020        -1.946601
 H        -5.416929        -0.578281        -1.851450
 H        -4.944422         0.659626        -0.526011
 H        -4.795057         1.178304        -3.377304
 H        -4.459884         2.255002        -2.082663
