19
Iteration:   636charge 0 multiplicity 1
 C         1.564972        -0.211241         0.383786
 C         0.098332         0.024964         0.273366
 C        -1.078079         0.244678         0.115454
 C        -2.536151         0.413874        -0.061739
 O        -3.140563        -0.421520         0.892204
 C        -3.059283        -0.140866        -1.418624
 C        -4.579643        -0.126868        -1.328643
 C        -4.349518         0.947733        -2.496503
 O        -2.998201         0.719714        -2.513105
 H         2.026938         0.544647         1.119435
 H         1.866594        -1.282643         0.603117
 H         1.986824        -0.027867        -0.538089
 H        -2.707975         1.554378         0.080104
 H        -2.740150        -1.322731         0.698720
 H        -2.556212        -1.118210        -1.537069
 H        -5.107594        -1.043254        -1.681625
 H        -4.904224         0.176556        -0.334503
 H        -4.868873         0.787547        -3.387571
 H        -4.601036         1.899035        -2.175052
