19
Iteration:   533charge 0 multiplicity 1
 C         1.439088         0.182949         0.373768
 C         0.074037        -0.033925         0.062165
 C        -1.124027         0.036670        -0.040320
 C        -2.600990         0.038671        -0.016725
 O        -2.983594        -0.699369         1.114161
 C        -3.267149        -0.245339        -1.345782
 C        -4.699141         0.205903        -1.458907
 C        -4.164491         1.165973        -2.601970
 O        -2.822657         0.641793        -2.400485
 H         1.917324         0.734702        -0.443287
 H         1.634032         0.778715         1.389746
 H         2.075809        -0.830684         0.472880
 H        -2.772947         1.219312         0.190110
 H        -2.334673        -0.470950         1.855319
 H        -3.266154        -1.320766        -1.613323
 H        -5.402063        -0.616221        -1.641410
 H        -5.143948         0.849279        -0.653105
 H        -4.504635         0.847039        -3.618536
 H        -4.280743         2.257443        -2.504930
