19
Iteration:  3767charge 0 multiplicity 1
 C         1.434426        -0.349616         0.533776
 C         0.110067         0.083285         0.191436
 C        -0.948179         0.537129        -0.240320
 C        -2.314656         0.979755        -0.519577
 O        -2.667161         1.264639         0.863732
 C        -3.062901        -0.289860        -1.093191
 C        -4.709926        -0.126114        -0.952938
 C        -4.660315        -0.266993        -2.526422
 O        -3.168241        -0.525674        -2.497569
 H         2.035358         0.587029         0.676562
 H         1.429610        -0.933965         1.546112
 H         1.819165        -1.116924        -0.132771
 H        -2.304279         1.822316        -1.248595
 H        -3.597310         1.616419         0.838412
 H        -2.805504        -1.147837        -0.546727
 H        -5.347154        -0.987468        -0.696386
 H        -5.039055         0.845061        -0.555045
 H        -5.147770        -1.151365        -2.777209
 H        -4.936587         0.604888        -3.165829
