19
Iteration:  1326
 C         1.627925        -0.181813         0.402322
 C         0.210650         0.006860         0.140473
 C        -1.034529         0.011816         0.161507
 C        -2.359859         0.385647        -0.141360
 O        -3.239239        -0.055857         0.929731
 C        -3.162758        -0.266551        -1.356047
 C        -4.652559        -0.050087        -1.298164
 C        -4.424980         0.754045        -2.592744
 O        -2.989894         0.638343        -2.474916
 H         2.189804         0.810217         0.257663
 H         1.835085        -0.548470         1.456134
 H         2.227126        -0.795452        -0.221608
 H        -2.328833         1.548714        -0.194857
 H        -2.904655         0.047798         1.794582
 H        -2.974334        -1.357677        -1.634059
 H        -5.177343        -1.028011        -1.271330
 H        -5.102381         0.683809        -0.565792
 H        -4.918482         0.268982        -3.553657
 H        -4.724324         1.891876        -2.620862
