19
Iteration:   299charge 0 multiplicity 1
 C         1.379362         0.045282        -0.368036
 C         0.028478        -0.024302         0.208427
 C        -1.160923         0.173791         0.410188
 C        -2.649056         0.124902         0.319307
 O        -3.378976        -0.952453         1.012404
 C        -3.043624        -0.010102        -1.176250
 C        -4.506438         0.074110        -1.522368
 C        -4.075556         1.028961        -2.724025
 O        -2.635238         0.990960        -2.168740
 H         2.104959         0.444998         0.533797
 H         1.743204        -0.948575        -0.598719
 H         1.437189         0.737950        -1.212243
 H        -2.986520         1.148245         0.623105
 H        -3.524037        -1.603070         0.206566
 H        -2.553615        -0.994502        -1.421921
 H        -4.972726        -0.881864        -1.547941
 H        -5.206663         0.596949        -0.914199
 H        -4.067491         0.684258        -3.749371
 H        -4.503792         2.002635        -2.634426
