19
Iteration:   330charge 0 multiplicity 1
 C         1.260228         0.162260        -0.403174
 C        -0.020667        -0.002778         0.212750
 C        -1.213702        -0.046993         0.440652
 C        -2.642128         0.147803         0.296585
 O        -3.203763        -0.880673         1.119232
 C        -3.081707        -0.143010        -1.229779
 C        -4.612810         0.062926        -1.631075
 C        -3.950660         1.081013        -2.747372
 O        -2.603026         0.985061        -2.061052
 H         2.037346        -0.169388         0.426813
 H         1.483411        -0.546606        -1.222664
 H         1.483516         1.088088        -0.810469
 H        -2.933923         1.256810         0.301835
 H        -3.985576        -1.109590         0.683014
 H        -2.653740        -1.117797        -1.563137
 H        -5.172019        -0.815864        -1.877092
 H        -5.040773         0.672453        -0.931557
 H        -3.878538         0.589758        -3.703442
 H        -4.377090         2.097739        -2.937375
