19
Iteration:  1188
 C         1.287950        -0.460378         0.221658
 C        -0.024105         0.084220        -0.087983
 C        -1.112835         0.516537         0.069779
 C        -2.554722         0.556471         0.099478
 O        -3.022715        -0.279508         1.234086
 C        -3.042221        -0.038808        -1.212962
 C        -4.602809        -0.186023        -1.438381
 C        -4.173922         0.505135        -2.802410
 O        -2.863449         0.856168        -2.356816
 H         1.462405        -1.331023        -0.423154
 H         1.968139         0.336966        -0.003247
 H         1.311193        -0.859548         1.294190
 H        -2.948035         1.494789         0.330924
 H        -2.424733        -1.099271         1.392272
 H        -2.446124        -0.977075        -1.209193
 H        -5.124512        -1.110176        -1.423367
 H        -5.149271         0.563777        -0.880843
 H        -4.086934        -0.418623        -3.489868
 H        -4.801696         1.234224        -3.284743
