19
Iteration:  4069
 C         1.427032        -0.313975        -0.193417
 C        -0.023628        -0.161399        -0.077675
 C        -1.145344         0.298330        -0.044838
 C        -2.523402         0.883260        -0.231649
 O        -2.925013         1.792014         0.892831
 C        -3.424153        -0.218387        -0.676096
 C        -4.689968         0.155179        -1.368666
 C        -3.943375        -0.283276        -2.678923
 O        -2.897788        -0.955590        -1.854581
 H         2.016626         0.013387        -1.096236
 H         1.845460         0.174390         0.716056
 H         1.671321        -1.414453         0.039334
 H        -2.432331         1.656707        -1.083532
 H        -3.279282         1.224506         1.607339
 H        -3.654334        -0.949019         0.036410
 H        -5.609954        -0.357265        -1.054280
 H        -4.799375         1.243446        -1.418072
 H        -4.351015        -1.061856        -3.383214
 H        -3.458790         0.538109        -3.180932
