19
Iteration:  2075charge 0 multiplicity 1
 C         1.524664        -0.156312        -0.077253
 C         0.062523        -0.002732         0.068001
 C        -1.101461         0.164787         0.289116
 C        -2.513104         0.510308         0.082148
 O        -3.199924         0.291717         1.316886
 C        -3.280113        -0.202249        -1.103118
 C        -4.692532         0.173127        -1.482062
 C        -4.106343         0.278843        -2.884768
 O        -2.747309         0.283114        -2.370819
 H         1.976596         0.693696        -0.670688
 H         2.065125        -0.085775         0.837222
 H         1.637604        -1.120094        -0.641278
 H        -2.495914         1.525410        -0.160350
 H        -3.781451        -0.517870         1.405920
 H        -3.069585        -1.273088        -1.024812
 H        -5.422837        -0.656241        -1.213218
 H        -4.827483         1.107765        -0.905093
 H        -4.500581        -0.515776        -3.514524
 H        -4.237457         1.223867        -3.413288
