19
Iteration:  1552
 C         1.443256         0.165448        -0.373281
 C        -0.014518        -0.060268        -0.006787
 C        -1.232318        -0.114948         0.191473
 C        -2.625611         0.264198         0.189042
 O        -3.474301        -0.042072         1.388264
 C        -3.202286        -0.322716        -1.086999
 C        -4.622395         0.278109        -1.471920
 C        -3.814632         0.630180        -2.851364
 O        -2.534000         0.322551        -2.170692
 H         1.822576        -0.691453        -0.883080
 H         1.606833         1.168082        -0.993761
 H         2.104113         0.485410         0.470047
 H        -2.607957         1.246011        -0.045040
 H        -3.441727         0.764752         2.012759
 H        -3.035936        -1.414624        -1.345683
 H        -5.486219        -0.391086        -1.406172
 H        -4.950564         1.246072        -1.055863
 H        -4.096771         0.015365        -3.698146
 H        -4.052158         1.741170        -3.067405
