19
Iteration:  1253charge 0 multiplicity 1
 C         1.528168        -0.364729         0.316007
 C         0.164779        -0.067365         0.290877
 C        -1.008874         0.260087         0.083431
 C        -2.493781         0.514379        -0.065478
 O        -2.987136        -0.078685         1.191701
 C        -3.168920        -0.086701        -1.319874
 C        -4.700215        -0.154198        -1.493071
 C        -4.405352         0.508672        -2.815114
 O        -3.033500         0.864487        -2.381088
 H         2.006451        -0.157232        -0.726501
 H         1.986326         0.253815         1.074228
 H         1.856796        -1.433522         0.666128
 H        -2.763632         1.537709         0.054042
 H        -2.518990        -0.908325         1.224391
 H        -2.765950        -1.050166        -1.563590
 H        -5.190971        -1.100164        -1.559257
 H        -5.211848         0.386472        -0.694719
 H        -4.215613         0.006864        -3.718253
 H        -4.937612         1.352094        -3.154246
