19
Iteration:  4121charge 0 multiplicity 1
 C         1.525638        -0.460672        -0.204489
 C         0.180518         0.113701         0.067079
 C        -1.042697         0.407892         0.096490
 C        -2.440418         0.931685        -0.314001
 O        -3.181446         1.601213         0.718198
 C        -3.353966        -0.274939        -0.679739
 C        -4.635478         0.328480        -1.331371
 C        -3.987513        -0.232865        -2.617344
 O        -3.058900        -1.075414        -1.841511
 H         2.039049         0.345588        -0.624796
 H         2.175251        -0.734343         0.569036
 H         1.385258        -1.279117        -0.958689
 H        -2.448343         1.613703        -1.126449
 H        -3.472090         0.845437         1.331679
 H        -3.551234        -1.022457         0.146928
 H        -5.670157        -0.009889        -1.135565
 H        -4.587229         1.421564        -1.226276
 H        -4.655495        -0.876914        -3.234406
 H        -3.418132         0.290486        -3.424563
