19
Iteration:   819
 C         1.521016        -0.045687        -0.100669
 C         0.112565         0.041188         0.185143
 C        -1.108401         0.065867         0.288992
 C        -2.542500         0.324639         0.126035
 O        -3.382858        -0.378297         0.984345
 C        -3.168159        -0.083941        -1.173046
 C        -4.641778         0.152577        -1.382314
 C        -4.106221         0.568754        -2.769007
 O        -2.774940         0.718023        -2.277192
 H         1.696273        -0.727347        -0.891187
 H         2.039111         0.940334        -0.322237
 H         2.089091        -0.466318         0.686599
 H        -2.607666         1.426713         0.158161
 H        -2.950628        -0.807160         1.693948
 H        -2.706020        -1.087373        -1.488280
 H        -5.341754        -0.630248        -1.099187
 H        -4.788807         1.071790        -0.837903
 H        -4.356495        -0.182670        -3.520853
 H        -4.446902         1.506215        -3.259912
