19
Iteration:  4809charge 0 multiplicity 1
 C         1.291686        -0.734095         0.071905
 C         0.151923         0.109410        -0.249264
 C        -0.983119         0.673537        -0.275901
 C        -2.389515         1.099079        -0.431856
 O        -3.091250         1.664059         0.765968
 C        -3.278988        -0.097193        -0.641020
 C        -4.719429         0.149107        -1.289970
 C        -4.196731        -0.664931        -2.454441
 O        -2.827063        -0.903993        -1.797337
 H         1.041203        -1.554613        -0.716506
 H         2.250877        -0.157486        -0.005469
 H         1.318813        -1.183428         1.097896
 H        -2.291676         1.890009        -1.206249
 H        -2.876592         2.614343         0.955403
 H        -3.168209        -0.788716         0.299861
 H        -5.500897        -0.111173        -0.575679
 H        -4.963248         1.246891        -1.537598
 H        -4.651377        -1.623686        -2.621510
 H        -4.061762        -0.139640        -3.410740
