19
Iteration:  3410
 C         1.146824        -0.408980        -0.326403
 C        -0.101385         0.133532        -0.107459
 C        -1.196774         0.613215        -0.039236
 C        -2.563478         0.936182        -0.008095
 O        -3.007619         0.967185         1.389058
 C        -3.431715        -0.092950        -0.763901
 C        -4.667292         0.229785        -1.679446
 C        -3.800939        -0.435310        -2.775611
 O        -2.586777        -0.509656        -1.980766
 H         2.032351         0.305310        -0.192227
 H         1.546932        -1.142662         0.339652
 H         1.199773        -0.815890        -1.469847
 H        -2.704167         1.990597        -0.402364
 H        -2.387430         0.397401         1.967770
 H        -3.648561        -0.918489         0.077620
 H        -5.707212        -0.099552        -1.354581
 H        -4.794553         1.349786        -1.797497
 H        -4.062873        -1.449646        -3.007098
 H        -3.672923         0.128189        -3.741709
