19
Iteration:   555charge 0 multiplicity 1
 C         1.510967         0.157417         0.429573
 C         0.109692        -0.073254         0.258700
 C        -1.013203        -0.068532        -0.277645
 C        -2.565664         0.181329        -0.038563
 O        -3.004402        -0.669612         1.128834
 C        -3.257758        -0.274528        -1.288761
 C        -4.796795         0.154290        -1.528613
 C        -4.250599         1.120930        -2.593460
 O        -2.888704         0.718572        -2.385080
 H         1.815721         1.002271        -0.181666
 H         1.886797         0.432098         1.556086
 H         2.222978        -0.744060         0.015737
 H        -2.363959         1.337404        -0.010637
 H        -2.592127        -0.307500         1.893035
 H        -2.966220        -1.332587        -1.491116
 H        -5.492200        -0.604908        -1.915014
 H        -5.361268         0.646819        -0.679969
 H        -4.552990         0.936723        -3.669617
 H        -4.241142         2.216687        -2.429764
