19
Iteration:  2690charge 0 multiplicity 1
 C         1.403818        -0.339482         0.232772
 C         0.087595         0.034751        -0.126663
 C        -1.039037         0.436159        -0.244816
 C        -2.472857         0.729357        -0.008387
 O        -2.957804         0.597339         1.277552
 C        -3.243945        -0.262046        -0.896938
 C        -4.795802         0.017057        -1.389576
 C        -4.132590         0.362984        -2.768479
 O        -2.884568        -0.258050        -2.357583
 H         2.012075        -0.363015        -0.743950
 H         1.923218         0.539948         0.838573
 H         1.597314        -1.355092         0.628713
 H        -2.621736         1.710107        -0.540296
 H        -3.817969         0.944760         1.361620
 H        -3.093088        -1.270424        -0.497195
 H        -5.406655        -0.908564        -1.346032
 H        -5.262504         0.840540        -0.776606
 H        -4.592195         0.030944        -3.680975
 H        -4.028790         1.413334        -3.007795
