19
Iteration:  4091
 C         1.377116        -0.322167        -0.194808
 C        -0.009484        -0.175937         0.016094
 C        -1.040592         0.469575         0.040750
 C        -2.339548         0.931659        -0.280191
 O        -3.022637         1.619283         0.770783
 C        -3.325569        -0.252286        -0.645075
 C        -4.667614         0.243857        -1.395602
 C        -3.933018        -0.213168        -2.609044
 O        -3.040003        -1.026199        -1.829145
 H         1.541613         0.396092        -1.056482
 H         1.936215        -0.089609         0.728813
 H         1.736865        -1.334434        -0.593066
 H        -2.490416         1.585707        -1.200200
 H        -3.713926         1.059706         1.178977
 H        -3.456213        -0.932329         0.146096
 H        -5.564181        -0.382089        -1.249707
 H        -4.875932         1.319748        -1.331131
 H        -4.631551        -0.939046        -3.113333
 H        -3.304382         0.412238        -3.217116
