19
Iteration:   889
 C         1.451188         0.083368         0.029601
 C        -0.001997         0.036460         0.105104
 C        -1.203691         0.152730        -0.022880
 C        -2.696787         0.282628         0.111998
 O        -2.965271        -0.352251         1.316022
 C        -3.393429        -0.302285        -1.179244
 C        -4.779745         0.338276        -1.554558
 C        -3.914077         0.827825        -2.775302
 O        -2.698461         0.339134        -2.241111
 H         1.934709         0.525390        -0.954775
 H         1.819283         0.587958         0.894634
 H         1.858065        -0.946153         0.007647
 H        -2.961892         1.369924         0.220778
 H        -2.697117        -1.282670         1.280482
 H        -3.399478        -1.445511        -1.062287
 H        -5.544596        -0.354421        -1.955640
 H        -5.202477         1.167076        -0.899847
 H        -3.907867         0.366115        -3.816305
 H        -3.904967         1.942954        -2.946717
