19
Iteration:   946
 C         1.419007         0.044725         0.065867
 C         0.005673         0.256421        -0.140189
 C        -1.162747         0.377204         0.195269
 C        -2.689610         0.281330         0.129583
 O        -3.105280        -0.445369         1.275336
 C        -3.367907        -0.347093        -1.158895
 C        -4.631932         0.419224        -1.500299
 C        -3.860109         0.997793        -2.629618
 O        -2.782647        -0.082301        -2.523508
 H         1.937992         1.057486         0.039222
 H         1.791819        -0.453462         0.954139
 H         1.883893        -0.697471        -0.745376
 H        -2.976770         1.342565         0.359301
 H        -2.381070        -0.846541         1.772203
 H        -3.600977        -1.406926        -0.807050
 H        -5.541209        -0.155201        -1.862403
 H        -5.044703         1.109027        -0.713333
 H        -4.120873         0.901242        -3.747096
 H        -3.385601         1.971667        -2.296477
