19
Iteration:   507charge 0 multiplicity 1
 C         1.494908         0.160181         0.281373
 C         0.094730         0.154823        -0.070094
 C        -1.121935         0.135148         0.065214
 C        -2.630030         0.131496         0.098700
 O        -3.181917        -0.801390         1.005641
 C        -3.231724        -0.267104        -1.312442
 C        -4.700177         0.278381        -1.433335
 C        -4.094374         1.127255        -2.543708
 O        -2.740441         0.519446        -2.380080
 H         2.278320         0.282904        -0.578558
 H         1.676052         0.944839         0.942134
 H         1.759710        -0.753670         0.793446
 H        -2.920600         1.171812         0.468258
 H        -2.501150        -1.281367         1.548990
 H        -3.168623        -1.370705        -1.413504
 H        -5.579024        -0.326172        -1.585110
 H        -4.946599         0.925202        -0.644018
 H        -4.482081         0.731176        -3.523137
 H        -4.186928         2.284972        -2.528581
