19
Iteration:  2588
 C         1.575185        -0.257731         0.352665
 C         0.136325        -0.109266         0.036502
 C        -1.019770         0.279096         0.118709
 C        -2.393829         0.722018        -0.098293
 O        -3.046155         0.688078         1.135481
 C        -3.137971        -0.245421        -1.116217
 C        -4.702751         0.069737        -1.218673
 C        -4.461153         0.127614        -2.777735
 O        -2.964385         0.068021        -2.617351
 H         1.847494        -1.315283         0.619584
 H         2.174773        -0.112519        -0.635294
 H         1.951921         0.602286         0.813576
 H        -2.560427         1.756668        -0.516402
 H        -3.337996        -0.274356         1.337884
 H        -3.109010        -1.320767        -0.874682
 H        -5.241587        -0.798662        -0.869263
 H        -5.049389         0.894574        -0.651729
 H        -4.794402        -0.837142        -3.241804
 H        -4.752698         1.051391        -3.313950
