19
Iteration:  2624charge 0 multiplicity 1
 C         1.606672        -0.398686         0.306733
 C         0.201414         0.204969         0.168061
 C        -0.997593         0.395890        -0.099506
 C        -2.444956         0.711195        -0.158036
 O        -3.207741         0.542108         1.053811
 C        -3.200423        -0.347112        -1.033811
 C        -4.672643         0.130956        -1.162385
 C        -4.393571         0.236198        -2.737885
 O        -2.934959        -0.086558        -2.536947
 H         1.673429        -1.488498        -0.042694
 H         2.136159         0.193784        -0.542476
 H         2.090381        -0.540427         1.262291
 H        -2.631141         1.793225        -0.634074
 H        -2.517386         0.606031         1.801682
 H        -2.880301        -1.376393        -0.807363
 H        -5.432678        -0.646517        -0.992372
 H        -5.054309         1.044644        -0.668237
 H        -4.810443        -0.489416        -3.391361
 H        -4.572963         1.181280        -3.133085
