19
Iteration:  2875
 C         1.455691        -0.280062        -0.235661
 C         0.033369         0.072625        -0.026678
 C        -1.174586         0.294788        -0.035031
 C        -2.565148         0.782932         0.108315
 O        -3.144051         0.757095         1.504834
 C        -3.363715        -0.101165        -0.862556
 C        -4.711612         0.232339        -1.608795
 C        -3.932881        -0.086233        -2.858142
 O        -2.718647        -0.282008        -2.193551
 H         1.803849        -1.207712         0.370188
 H         1.474815        -0.430635        -1.361011
 H         2.164055         0.471353         0.008278
 H        -2.511834         1.930354        -0.207068
 H        -2.974506        -0.156284         1.650863
 H        -3.363493        -1.111888        -0.406378
 H        -5.552381        -0.430867        -1.529733
 H        -5.028681         1.219492        -1.699340
 H        -4.307570        -0.953312        -3.505061
 H        -3.884724         0.853793        -3.525159
