19
Iteration:  2572charge 0 multiplicity 1
 C         1.576958        -0.222153         0.270812
 C         0.122464        -0.177369         0.140798
 C        -1.023192         0.191534         0.000583
 C        -2.381863         0.667908        -0.120347
 O        -3.016922         0.750077         1.265587
 C        -3.185838        -0.181511        -1.181703
 C        -4.681946        -0.005948        -1.277803
 C        -4.427776         0.070599        -2.767545
 O        -3.008070         0.137886        -2.555633
 H         1.823436        -0.886570         1.064372
 H         2.133738        -0.379873        -0.605189
 H         1.904954         0.779217         0.793565
 H        -2.342288         1.719950        -0.333404
 H        -3.506359        -0.099180         1.326676
 H        -2.666980        -1.167480        -1.162500
 H        -5.481486        -0.726242        -0.976164
 H        -4.944731         1.066151        -0.942336
 H        -4.718288        -0.808924        -3.410869
 H        -4.876970         0.951478        -3.364621
