19
Iteration:  3885charge 0 multiplicity 1
 C         1.496832        -0.361629         0.212365
 C         0.063344        -0.179465         0.268045
 C        -0.956019         0.422205        -0.089905
 C        -2.294300         0.933153        -0.337789
 O        -2.892392         1.641627         0.799623
 C        -3.237339        -0.184752        -0.877810
 C        -4.807470        -0.063950        -1.215322
 C        -4.457686        -0.657737        -2.549114
 O        -3.042208        -0.324758        -2.363371
 H         1.928075        -0.946328         1.065356
 H         1.649510        -0.956158        -0.692613
 H         1.868654         0.622320         0.083354
 H        -2.271015         1.749784        -1.031649
 H        -2.502091         1.109983         1.462491
 H        -2.862551        -1.160834        -0.407792
 H        -5.364085        -0.688727        -0.502018
 H        -5.096613         0.995905        -1.212038
 H        -4.459525        -1.772805        -2.610695
 H        -4.718861        -0.126490        -3.539376
