19
Iteration:   936
 C         1.466431         0.027680         0.057187
 C         0.008364         0.268537        -0.049876
 C        -1.208355         0.296971         0.093142
 C        -2.668938         0.314558         0.112598
 O        -3.084335        -0.474010         1.354611
 C        -3.361599        -0.268543        -1.136329
 C        -4.697413         0.412784        -1.536400
 C        -3.828563         0.965228        -2.682663
 O        -2.788823        -0.046634        -2.472800
 H         2.043069         0.942912        -0.233668
 H         1.674285        -0.200157         1.131787
 H         1.832034        -0.749804        -0.794983
 H        -3.238301         1.279659         0.215591
 H        -2.283992        -0.870032         1.631184
 H        -3.374320        -1.370111        -0.941875
 H        -5.417052        -0.338638        -1.948915
 H        -5.085498         1.084868        -0.749599
 H        -4.378126         1.057842        -3.702556
 H        -3.414850         2.021947        -2.477127
