19
Iteration:  1550
 C         1.436991         0.168711        -0.357184
 C        -0.012260        -0.057026        -0.013571
 C        -1.231950        -0.114843         0.176540
 C        -2.635697         0.240005         0.195328
 O        -3.471649        -0.030892         1.391354
 C        -3.220691        -0.319170        -1.093929
 C        -4.604183         0.280470        -1.471716
 C        -3.816826         0.628006        -2.836851
 O        -2.526447         0.324450        -2.184311
 H         1.800236        -0.694724        -0.906888
 H         1.580395         1.053427        -1.007151
 H         2.117411         0.556424         0.500240
 H        -2.620996         1.265581        -0.032715
 H        -3.403484         0.765227         2.035312
 H        -2.950701        -1.424603        -1.326972
 H        -5.464871        -0.384775        -1.426594
 H        -4.935043         1.220916        -1.043598
 H        -4.136388         0.003383        -3.705488
 H        -4.094362         1.766297        -3.032080
