19
Iteration:  3909
 C         1.471853        -0.501732         0.220687
 C         0.112040         0.111557         0.132432
 C        -1.009025         0.523303        -0.031539
 C        -2.376041         0.952897        -0.379635
 O        -2.893950         1.434548         0.837476
 C        -3.296928        -0.171819        -0.915417
 C        -4.770994         0.037775        -1.211751
 C        -4.453765        -0.662607        -2.536135
 O        -2.939136        -0.433750        -2.287524
 H         1.530417        -1.390706         0.848279
 H         1.716470        -0.765195        -0.833406
 H         2.110883         0.250050         0.552526
 H        -2.403161         1.803530        -1.084671
 H        -2.048496         1.794958         1.239150
 H        -3.100158        -1.093807        -0.290873
 H        -5.446680        -0.549029        -0.561517
 H        -5.054256         1.100562        -1.314917
 H        -4.544131        -1.748281        -2.641605
 H        -4.649043        -0.104914        -3.531897
