19
Iteration:   305
 C         1.348642         0.077061        -0.352014
 C         0.047625        -0.050094         0.209744
 C        -1.140013         0.151649         0.466941
 C        -2.644391         0.139458         0.319705
 O        -3.344088        -0.937714         1.007804
 C        -3.009371        -0.007613        -1.176777
 C        -4.530086         0.094486        -1.555561
 C        -4.056184         1.005845        -2.728871
 O        -2.661181         0.971307        -2.135657
 H         2.066425         0.299411         0.353044
 H         1.745792        -0.871635        -0.840247
 H         1.357200         0.773540        -1.198292
 H        -3.127336         1.124336         0.502690
 H        -3.679343        -1.525310         0.342607
 H        -2.788378        -1.039352        -1.548407
 H        -4.872918        -0.967972        -1.813869
 H        -5.277024         0.739544        -0.965586
 H        -4.198270         0.669060        -3.786249
 H        -4.421671         2.085450        -2.641245
