19
Iteration:  4353
 C         1.451543        -0.376744         0.270162
 C         0.124864         0.039727         0.078836
 C        -0.990727         0.396642        -0.040274
 C        -2.327650         0.794748        -0.420344
 O        -2.866142         1.733961         0.492555
 C        -3.278540        -0.347652        -0.822532
 C        -4.745983        -0.018821        -0.966900
 C        -4.480411        -0.553449        -2.471394
 O        -2.990990        -0.465589        -2.264410
 H         1.491767        -1.434124         0.519799
 H         2.147389        -0.334662        -0.584324
 H         1.828788         0.176471         1.234842
 H        -2.227182         1.420908        -1.372114
 H        -2.383122         1.803378         1.345105
 H        -3.209352        -1.297677        -0.434997
 H        -5.406287        -0.523450        -0.258393
 H        -4.989788         1.033284        -1.142385
 H        -4.834840        -1.546205        -2.618370
 H        -4.828905        -0.018755        -3.357584
