19
Iteration:  3050charge 0 multiplicity 1
 C         1.601440        -0.216158         0.232916
 C         0.176446        -0.065982        -0.109806
 C        -1.006029         0.299889         0.025025
 C        -2.403133         0.679702        -0.113540
 O        -3.123259         1.078492         1.183197
 C        -3.225012        -0.293996        -1.025008
 C        -4.709787        -0.069976        -1.286125
 C        -4.342149        -0.101102        -2.755744
 O        -2.944579        -0.068937        -2.418693
 H         1.989253         0.885104         0.035225
 H         1.908186        -0.627130         1.293058
 H         2.065554        -0.938639        -0.479953
 H        -2.443026         1.631204        -0.678454
 H        -3.836260         0.432113         1.483873
 H        -3.024041        -1.359964        -0.553775
 H        -5.364320        -0.864399        -0.933287
 H        -5.105498         0.857622        -0.840870
 H        -4.685231        -0.944295        -3.379058
 H        -4.607298         0.765730        -3.266343
