19
Iteration:   825charge 0 multiplicity 1
 C         1.479138        -0.015794        -0.084714
 C         0.089153         0.043624         0.112748
 C        -1.108215         0.025760         0.275723
 C        -2.510681         0.356087         0.126143
 O        -3.378942        -0.380317         1.024638
 C        -3.121419        -0.100915        -1.148664
 C        -4.613886         0.201109        -1.395401
 C        -4.124653         0.588643        -2.832158
 O        -2.767432         0.670867        -2.263715
 H         1.923912        -0.569569        -1.028074
 H         2.019417         0.893500        -0.210178
 H         1.900830        -0.566376         0.897867
 H        -2.799465         1.446382         0.244445
 H        -2.868111        -0.930622         1.731278
 H        -2.953640        -1.139658        -1.394833
 H        -5.359888        -0.597764        -1.204272
 H        -4.895656         1.086916        -0.755643
 H        -4.207764        -0.270570        -3.559799
 H        -4.587808         1.577168        -3.007832
