19
Iteration:  1331
 C         1.660225        -0.178986         0.425843
 C         0.197299         0.009198         0.146815
 C        -1.026758         0.009176         0.118519
 C        -2.404926         0.373108        -0.154425
 O        -3.211457        -0.057127         0.974046
 C        -3.166944        -0.274116        -1.351448
 C        -4.705646        -0.060386        -1.290070
 C        -4.414570         0.766709        -2.586342
 O        -2.971865         0.648580        -2.513498
 H         2.155164         0.799262         0.384772
 H         1.789772        -0.518587         1.437878
 H         2.103436        -0.768641        -0.459413
 H        -2.484251         1.467078        -0.168329
 H        -2.839542         0.188386         1.870412
 H        -3.011204        -1.317378        -1.557870
 H        -5.249533        -0.992247        -1.394322
 H        -5.064673         0.575340        -0.515679
 H        -4.718722         0.321566        -3.478071
 H        -4.508905         1.805943        -2.679605
