19
Iteration:  2896charge 0 multiplicity 1
 C         1.375076        -0.324452        -0.207341
 C        -0.022196         0.011317        -0.100286
 C        -1.121361         0.510448         0.036230
 C        -2.609785         0.791958         0.106557
 O        -2.967983         0.713100         1.450356
 C        -3.401230        -0.193185        -0.909310
 C        -4.716252         0.258549        -1.569108
 C        -3.953816        -0.127549        -2.945218
 O        -2.685493        -0.227387        -2.152854
 H         1.699898        -1.355892         0.190720
 H         1.825540         0.002697        -1.183777
 H         1.832460         0.303380         0.573386
 H        -2.711510         1.859213        -0.064639
 H        -3.585027        -0.060018         1.534940
 H        -3.523915        -1.189614        -0.400148
 H        -5.479851        -0.424616        -1.237030
 H        -5.066302         1.230392        -1.484640
 H        -4.387656        -1.071173        -3.334288
 H        -3.832997         0.579911        -3.746933
