19
Iteration:   997charge 0 multiplicity 1
 C         1.450033         0.156150        -0.088321
 C         0.056370         0.172144         0.136603
 C        -1.150163         0.094878        -0.017681
 C        -2.630793         0.288893         0.060723
 O        -3.241471        -0.267192         1.250447
 C        -3.349837        -0.348841        -1.110904
 C        -4.687284         0.332764        -1.521574
 C        -3.823238         0.947814        -2.599020
 O        -2.746498         0.012477        -2.363749
 H         2.000839         0.819237         0.669719
 H         1.789371        -0.916299         0.002037
 H         1.787864         0.460281        -1.020565
 H        -2.869335         1.370868         0.181085
 H        -2.807510        -0.979913         1.659077
 H        -3.358986        -1.457540        -0.870477
 H        -5.558999        -0.212209        -1.916659
 H        -5.144596         0.953823        -0.723070
 H        -4.081172         1.106825        -3.639025
 H        -3.426702         1.941833        -2.315690
