19
Iteration:  1047charge 0 multiplicity 1
 C         1.431533         0.147860        -0.059817
 C         0.045498        -0.110340        -0.065342
 C        -1.174967        -0.110168         0.084911
 C        -2.590317         0.295475         0.175420
 O        -3.279205        -0.034785         1.444186
 C        -3.222262        -0.330922        -1.190401
 C        -4.657570         0.126420        -1.550294
 C        -3.949742         0.880257        -2.729881
 O        -2.675057         0.353483        -2.342661
 H         1.934981         0.200850         0.827533
 H         1.972115        -0.410660        -0.863347
 H         1.537943         1.292167        -0.353153
 H        -2.911046         1.400763         0.064057
 H        -3.139700        -0.986378         1.813844
 H        -3.085749        -1.406490        -1.282243
 H        -5.318004        -0.696585        -1.798641
 H        -5.285931         0.711097        -0.907496
 H        -4.245894         0.759830        -3.783003
 H        -3.866567         2.000412        -2.774774
