19
Iteration:  1921charge 0 multiplicity 1
 C         1.354205        -0.408591         0.543081
 C         0.087799         0.072864         0.117752
 C        -0.983504         0.560333        -0.233022
 C        -2.455817         0.598159        -0.105682
 O        -3.012656         0.070472         1.144842
 C        -3.093817        -0.230697        -1.300075
 C        -4.584916        -0.113734        -1.227367
 C        -4.376662         0.654233        -2.581189
 O        -3.002320         0.252177        -2.643527
 H         1.560446        -1.462476         0.613120
 H         2.001680        -0.008116        -0.161853
 H         1.696689         0.145188         1.387885
 H        -2.947677         1.668303        -0.077438
 H        -2.270160        -0.530230         1.438771
 H        -2.628659        -1.257398        -1.293762
 H        -5.142921        -1.068520        -1.289061
 H        -5.152595         0.561914        -0.583509
 H        -4.941657         0.203452        -3.483471
 H        -4.395170         1.762006        -2.621304
