19
Iteration:  4861
 C         1.367928        -0.517899        -0.088275
 C        -0.002842        -0.097790         0.185040
 C        -1.013253         0.510605         0.017402
 C        -2.379283         1.016495        -0.404898
 O        -2.796205         1.939751         0.586273
 C        -3.310817        -0.240473        -0.712085
 C        -4.732396         0.104890        -1.196205
 C        -4.256606        -0.646348        -2.439097
 O        -2.930461        -0.868713        -1.995540
 H         1.683387        -0.538034        -1.127841
 H         1.943421         0.324149         0.420893
 H         1.444680        -1.523809         0.321919
 H        -2.076215         1.604949        -1.293887
 H        -3.696821         2.223467         0.442794
 H        -3.222929        -1.048984        -0.039921
 H        -5.481816        -0.448229        -0.571457
 H        -5.097461         1.189556        -1.297282
 H        -4.786562        -1.614326        -2.713298
 H        -4.234534        -0.081197        -3.400066
