19
Iteration:  4280
 C         1.310962        -0.606183         0.307049
 C         0.158754         0.297685         0.048812
 C        -0.929572         0.691423        -0.245579
 C        -2.330188         1.027854        -0.450102
 O        -2.854921         1.410795         0.772022
 C        -3.249095        -0.159900        -0.889970
 C        -4.741637         0.214418        -1.170620
 C        -4.494635        -0.723923        -2.418542
 O        -2.934133        -0.677346        -2.230162
 H         1.450109        -1.042725         1.360739
 H         1.346222        -1.445808        -0.420211
 H         2.162289         0.003907         0.257928
 H        -2.375802         1.798863        -1.224603
 H        -2.556933         0.681484         1.424357
 H        -3.216600        -1.086283        -0.149582
 H        -5.549652         0.064607        -0.442777
 H        -4.603041         1.299886        -1.385658
 H        -4.886161        -1.794913        -2.390703
 H        -4.922902        -0.324173        -3.357034
