19
Iteration:  1216charge 0 multiplicity 1
 C         1.387125        -0.496456         0.333728
 C         0.115183         0.139842        -0.089180
 C        -1.066223         0.389692        -0.052392
 C        -2.519849         0.530576         0.030930
 O        -3.031013        -0.206125         1.330378
 C        -3.089358        -0.053224        -1.214272
 C        -4.636379        -0.203941        -1.529975
 C        -4.272725         0.492047        -2.877665
 O        -2.969003         0.902692        -2.268884
 H         2.007818        -1.044598        -0.443988
 H         2.022881         0.360313         0.601326
 H         1.143065        -1.177792         1.112768
 H        -2.819355         1.637221         0.220192
 H        -2.583229        -1.098608         1.435917
 H        -2.481531        -0.980225        -1.266154
 H        -5.116083        -1.236471        -1.501721
 H        -5.216599         0.623694        -1.052763
 H        -4.125875        -0.327065        -3.523340
 H        -4.936900         1.302661        -3.248287
