19
Iteration:  2499charge 0 multiplicity 1
 C         1.642849        -0.355680         0.306219
 C         0.194206         0.003338         0.079181
 C        -1.002509         0.251877        -0.016921
 C        -2.441017         0.668083        -0.075385
 O        -3.146833         0.539643         1.269003
 C        -3.131650        -0.179324        -1.201082
 C        -4.744986         0.001500        -1.299385
 C        -4.427847         0.043683        -2.756819
 O        -3.004409         0.270778        -2.580837
 H         1.878628         0.100049         1.303632
 H         1.760521        -1.488205         0.362601
 H         2.363115        -0.014839        -0.504827
 H        -2.483979         1.834566        -0.364360
 H        -2.655683         1.289965         1.763669
 H        -2.833679        -1.253695        -1.036488
 H        -5.209297        -0.873210        -0.895657
 H        -5.190801         0.930548        -0.964167
 H        -4.590382        -0.892430        -3.285016
 H        -4.784689         0.969209        -3.298590
