19
Iteration:  1103charge 0 multiplicity 1
 C         1.527808        -0.157004        -0.146964
 C         0.093643         0.052979         0.144197
 C        -1.112887         0.231383         0.263253
 C        -2.564241         0.397388         0.152336
 O        -3.444954        -0.163867         1.257551
 C        -3.065412        -0.229474        -1.204237
 C        -4.570560         0.025915        -1.458116
 C        -4.178903         0.681344        -2.760932
 O        -2.721663         0.575875        -2.399323
 H         1.771539        -1.094139         0.233252
 H         1.842359        -0.177824        -1.250987
 H         2.152885         0.603696         0.415222
 H        -3.051734         1.380256         0.234607
 H        -3.046895        -0.884612         1.697396
 H        -2.832525        -1.267073        -1.415021
 H        -5.150687        -0.864054        -1.532220
 H        -5.039766         0.771230        -0.859144
 H        -4.219627        -0.038714        -3.534162
 H        -4.409170         1.716452        -3.056244
