19
Iteration:  2048charge 0 multiplicity 1
 C         1.542814        -0.118641        -0.009730
 C         0.070616        -0.201955         0.060811
 C        -1.147767         0.028135         0.030949
 C        -2.504451         0.557771         0.091874
 O        -3.294788         0.411504         1.321803
 C        -3.215009        -0.212913        -1.117212
 C        -4.658451         0.041662        -1.427086
 C        -4.149333         0.315608        -2.792807
 O        -2.729356         0.392449        -2.422158
 H         2.006748         0.616250        -0.742509
 H         1.637244         0.543269         0.959583
 H         2.077945        -1.059012         0.046442
 H        -2.419024         1.667654        -0.230716
 H        -3.176101        -0.498659         1.767409
 H        -2.798852        -1.238205        -1.026345
 H        -5.381647        -0.765675        -1.361096
 H        -4.951301         0.851173        -0.754176
 H        -4.519941        -0.450940        -3.475596
 H        -4.443888         1.322493        -3.087684
