19
Iteration:  3929charge 0 multiplicity 1
 C         1.407676        -0.536175         0.232468
 C         0.199280         0.273499        -0.010953
 C        -0.997275         0.478916        -0.253117
 C        -2.319828         0.995975        -0.291299
 O        -3.043653         1.394307         0.968460
 C        -3.238367        -0.190995        -0.888697
 C        -4.670068         0.136999        -1.184671
 C        -4.377990        -0.620064        -2.546834
 O        -2.962672        -0.593620        -2.277158
 H         0.992030        -1.506012         0.620678
 H         1.958210        -0.879602        -0.663153
 H         2.079985        -0.103504         0.923440
 H        -2.461042         1.738267        -1.034848
 H        -2.758033         2.223484         1.298707
 H        -3.201728        -1.092316        -0.176926
 H        -5.557455        -0.329916        -0.765083
 H        -4.819609         1.198446        -1.433836
 H        -4.683604        -1.684227        -2.486802
 H        -4.575088        -0.055506        -3.502475
