19
Iteration:  4002
 C         1.330283        -0.485004         0.053192
 C         0.005289         0.087211        -0.006912
 C        -1.044640         0.606316        -0.400937
 C        -2.426480         1.065022        -0.278959
 O        -2.862459         1.368682         1.122426
 C        -3.368768        -0.163299        -0.753818
 C        -4.686230         0.187248        -1.432825
 C        -4.099653        -0.483050        -2.737617
 O        -2.951336        -0.887704        -1.928456
 H         1.547727        -1.252328        -0.734630
 H         2.129121         0.258247        -0.082244
 H         1.396833        -0.997625         1.125556
 H        -2.647185         2.092084        -0.873567
 H        -2.623284         2.299678         1.294334
 H        -3.319900        -0.678245         0.178034
 H        -5.401162        -0.497755        -0.930862
 H        -4.957793         1.244476        -1.267495
 H        -4.829461        -1.315666        -2.965034
 H        -3.878426         0.138832        -3.617732
