19
Iteration:  3031charge 0 multiplicity 1
 C         1.500103        -0.219407         0.069787
 C         0.055468        -0.054242         0.002323
 C        -1.079263         0.351527         0.065377
 C        -2.443779         0.740206        -0.124313
 O        -3.076023         0.964522         1.088879
 C        -3.201178        -0.309642        -0.991061
 C        -4.731907         0.012200        -1.242849
 C        -4.302203        -0.124567        -2.712451
 O        -2.803982        -0.054762        -2.390705
 H         2.113739         0.655937        -0.359351
 H         1.612572        -0.253096         1.229234
 H         1.845774        -1.184735        -0.273782
 H        -2.417520         1.726332        -0.553198
 H        -3.344349         0.044392         1.437740
 H        -2.850500        -1.309554        -0.594419
 H        -5.416819        -0.691344        -0.773729
 H        -5.115754         0.972797        -0.867577
 H        -4.403283        -1.100079        -3.140880
 H        -4.598382         0.610152        -3.551568
