19
Iteration:    53
 C         1.509448        -0.065296         0.409512
 C         0.091890         0.031520        -0.011279
 C        -1.109763         0.084663        -0.263853
 C        -2.515883         0.075209        -0.020407
 O        -2.945645        -0.991924         0.939896
 C        -3.215363        -0.172102        -1.379275
 C        -4.723432         0.064811        -1.459983
 C        -4.306247         1.368151        -2.229662
 O        -2.824545         0.999175        -2.283431
 H         1.714738        -1.195612         0.703595
 H         2.226822         0.312757        -0.365930
 H         1.696388         0.489844         1.307208
 H        -2.793000         1.046915         0.392492
 H        -3.874940        -0.990131         0.960705
 H        -2.873752        -1.146856        -1.780075
 H        -5.137747        -0.568788        -2.217026
 H        -5.241022         0.251623        -0.432378
 H        -4.722870         1.341992        -3.219367
 H        -4.518739         2.447460        -1.875405
