19
Iteration:  4437charge 0 multiplicity 1
 C         1.511446        -0.278104         0.481263
 C         0.172566         0.050941         0.084613
 C        -0.921263         0.424936        -0.351548
 C        -2.302179         0.826809        -0.509622
 O        -2.958188         1.517160         0.557557
 C        -3.205416        -0.344207        -0.825782
 C        -4.644417         0.150941        -0.992284
 C        -4.515420        -0.309173        -2.415816
 O        -3.164075        -0.865659        -2.233130
 H         2.001493        -0.790779        -0.363850
 H         1.973578         0.667581         0.730367
 H         1.606529        -0.945743         1.346423
 H        -2.349086         1.421820        -1.443959
 H        -2.429191         2.352689         0.569524
 H        -3.029692        -1.188847        -0.052483
 H        -5.426887        -0.153265        -0.320698
 H        -4.779521         1.215163        -1.056522
 H        -5.315769        -1.052744        -2.585689
 H        -4.532409         0.542131        -3.152264
