19
Iteration:  4216
 C         1.342749        -0.431865         0.252521
 C         0.011106        -0.113984        -0.148586
 C        -1.014135         0.511949        -0.365116
 C        -2.348722         1.075396        -0.346567
 O        -2.725920         1.347088         0.959772
 C        -3.424147        -0.011647        -0.749782
 C        -4.813936         0.154190        -1.401747
 C        -4.255568        -0.648213        -2.613120
 O        -2.900528        -0.623061        -1.960735
 H         1.558815         0.281146         1.163851
 H         1.524380        -1.459888         0.687016
 H         1.908725        -0.140797        -0.624706
 H        -2.442011         2.009493        -0.913095
 H        -2.617193         2.287744         1.264269
 H        -3.264086        -0.683798         0.033108
 H        -5.494689        -0.551832        -0.908104
 H        -5.253444         1.165072        -1.467087
 H        -4.667963        -1.659129        -2.532578
 H        -4.278277        -0.494294        -3.692256
