19
Iteration:  3330
 C         1.445483        -0.289785        -0.275669
 C         0.110858         0.019066         0.196058
 C        -1.042329         0.410531         0.251151
 C        -2.391393         0.784179        -0.092332
 O        -3.205968         0.962117         1.086198
 C        -3.221154        -0.242354        -0.894641
 C        -4.731612         0.274452        -1.436864
 C        -4.134478        -0.210047        -2.724234
 O        -2.815943        -0.463165        -2.210689
 H         1.432813         0.069541        -1.281075
 H         2.219801         0.110503         0.426082
 H         1.577691        -1.448985        -0.389973
 H        -2.362313         1.783639        -0.623344
 H        -3.527605         1.888660         1.217578
 H        -3.250631        -1.141459        -0.141612
 H        -5.541059        -0.285374        -1.027312
 H        -4.914321         1.323647        -1.366657
 H        -4.610838        -1.062533        -3.126985
 H        -4.183148         0.583845        -3.432640
