19
Iteration:   118
 C         1.621585        -0.049254         0.459110
 C         0.186549         0.016654         0.237971
 C        -1.002404        -0.032799        -0.013311
 C        -2.441257         0.123103        -0.093816
 O        -3.094786        -0.908693         0.771544
 C        -3.165322        -0.132349        -1.419890
 C        -4.680890         0.137610        -1.368018
 C        -4.435927         1.387278        -2.261673
 O        -3.049638         0.873434        -2.528754
 H         2.035348        -0.602057        -0.492707
 H         2.147696         0.955998         0.554829
 H         1.775930        -0.622692         1.488078
 H        -2.685360         1.183382         0.253089
 H        -2.379517        -1.518252         1.047521
 H        -2.856552        -1.165969        -1.698930
 H        -5.351383        -0.607621        -1.788829
 H        -4.964477         0.385624        -0.265784
 H        -4.958268         1.494191        -3.215937
 H        -4.537871         2.407251        -1.743378
