19
Iteration:   526charge 0 multiplicity 1
 C         1.445755         0.170204         0.368038
 C         0.074921         0.006586        -0.004953
 C        -1.145734         0.066971         0.040420
 C        -2.579763         0.075280        -0.022453
 O        -3.024309        -0.744500         1.101765
 C        -3.258869        -0.293738        -1.307012
 C        -4.683816         0.265547        -1.433893
 C        -4.145310         1.136383        -2.621096
 O        -2.839743         0.637446        -2.390920
 H         1.995639         0.614095        -0.435237
 H         1.529587         0.870607         1.199976
 H         1.898234        -0.750385         0.493958
 H        -2.780565         1.102955        -0.035917
 H        -2.294297        -0.586684         1.683936
 H        -3.069451        -1.334535        -1.581873
 H        -5.402810        -0.546480        -1.723017
 H        -5.107467         0.814891        -0.542531
 H        -4.443555         0.934433        -3.629345
 H        -4.079925         2.204784        -2.509486
