19
Iteration:  1812charge 0 multiplicity 1
 C         1.668547        -0.128801         0.280095
 C         0.126439        -0.151661         0.318069
 C        -1.062745         0.086737         0.087813
 C        -2.420180         0.489185        -0.135772
 O        -3.295199         0.053048         1.042114
 C        -3.063170        -0.251971        -1.312435
 C        -4.604262        -0.037380        -1.234229
 C        -4.384966         0.678589        -2.671205
 O        -2.978834         0.487392        -2.588885
 H         1.946378         0.257771         1.282325
 H         2.051247        -1.069639        -0.047571
 H         1.922953         0.851431        -0.361954
 H        -2.446344         1.530363        -0.218739
 H        -2.883870         0.186659         1.856487
 H        -2.776893        -1.330584        -1.335295
 H        -5.256365        -0.911203        -1.123118
 H        -4.935850         0.709775        -0.480970
 H        -4.922108        -0.029948        -3.395143
 H        -4.529365         1.699263        -2.899457
