19
Iteration:   678
 C         1.508254        -0.363988         0.294038
 C         0.111274         0.102376         0.258739
 C        -1.060541         0.414327         0.071820
 C        -2.577016         0.402272         0.085236
 O        -3.020756        -0.394516         1.203548
 C        -3.043104        -0.123666        -1.390039
 C        -4.600312        -0.272824        -1.593174
 C        -4.446298         0.921679        -2.639069
 O        -2.985016         0.817252        -2.479755
 H         1.906600        -0.492902         1.329395
 H         1.542369        -1.425984        -0.210327
 H         2.263347         0.118580        -0.285526
 H        -3.046846         1.397275         0.247596
 H        -2.529819        -1.127417         1.455143
 H        -2.430871        -0.877874        -1.785906
 H        -4.899090        -1.275044        -1.988572
 H        -5.210131         0.005679        -0.738994
 H        -4.633228         0.774056        -3.685613
 H        -4.672708         1.953333        -2.438517
