19
Iteration:  3226
 C         1.425387        -0.205322         0.451965
 C         0.065860         0.007429         0.051097
 C        -1.036916         0.378590        -0.292877
 C        -2.401693         0.722420        -0.336608
 O        -2.660845         0.971868         1.125342
 C        -3.252751        -0.350545        -0.943805
 C        -4.796958         0.018728        -1.259309
 C        -4.373731         0.066261        -2.725894
 O        -3.010879        -0.344091        -2.357843
 H         1.755687        -1.278874         0.394386
 H         2.061289         0.257416        -0.319749
 H         1.507510         0.217026         1.382350
 H        -2.615565         1.701452        -0.901443
 H        -3.666049         1.007211         1.286495
 H        -2.806777        -1.313260        -0.602045
 H        -5.403082        -0.897152        -1.146914
 H        -5.279918         0.908066        -0.748894
 H        -5.037773        -0.656199        -3.357225
 H        -4.393538         1.123567        -3.078245
