19
Iteration:   390charge 0 multiplicity 1
 C         1.392284         0.201195        -0.269770
 C        -0.088140         0.136465        -0.164808
 C        -1.235982         0.018723         0.278975
 C        -2.675831         0.065073         0.289243
 O        -3.341346        -0.832888         1.059670
 C        -3.169265        -0.214884        -1.075512
 C        -4.576187         0.141628        -1.682108
 C        -3.824575         1.091320        -2.633041
 O        -2.597882         0.785683        -2.012687
 H         1.873870        -0.692389         0.054023
 H         1.733283         0.434280        -1.301575
 H         1.750842         0.938707         0.595397
 H        -3.136588         1.030847         0.551190
 H        -2.791325        -1.039873         1.902322
 H        -2.947149        -1.217498        -1.456049
 H        -5.310504        -0.644084        -1.979405
 H        -5.344289         0.723467        -1.047957
 H        -3.717571         0.576939        -3.614877
 H        -4.043654         2.116863        -2.828527
