19
Iteration:   196charge 0 multiplicity 1
 C         1.544367        -0.056144         0.267210
 C         0.091609        -0.058453         0.148423
 C        -1.118800        -0.068914         0.011426
 C        -2.551704         0.154096         0.061116
 O        -2.831888        -0.919865         0.977638
 C        -3.238914        -0.099498        -1.326254
 C        -4.716539         0.119021        -1.580064
 C        -4.332520         1.261966        -2.590574
 O        -2.916387         1.005203        -2.172914
 H         1.946980         0.867541        -0.411497
 H         1.758636         0.123059         1.389567
 H         2.087486        -1.009188        -0.109301
 H        -2.789570         1.253341         0.364315
 H        -3.743234        -0.839510         1.138765
 H        -3.028130        -1.177265        -1.600733
 H        -5.132807        -0.677199        -2.257629
 H        -5.258867         0.466430        -0.720418
 H        -4.528130         0.979034        -3.609161
 H        -4.551015         2.370748        -2.422735
