19
Iteration:  3768charge 0 multiplicity 1
 C         1.435903        -0.343186         0.535383
 C         0.106563         0.087036         0.195731
 C        -0.950315         0.534435        -0.228223
 C        -2.304889         0.982722        -0.516755
 O        -2.668328         1.265137         0.854853
 C        -3.060690        -0.285358        -1.097675
 C        -4.719424        -0.127412        -0.955424
 C        -4.661258        -0.262667        -2.519141
 O        -3.170697        -0.526185        -2.497705
 H         2.041333         0.578361         0.667098
 H         1.436270        -0.979769         1.514426
 H         1.812707        -1.142181        -0.174980
 H        -2.295233         1.802953        -1.263048
 H        -3.584208         1.579374         0.845839
 H        -2.805230        -1.169854        -0.554745
 H        -5.335956        -0.995538        -0.678509
 H        -5.023007         0.854546        -0.558473
 H        -5.130129        -1.176491        -2.799025
 H        -4.921260         0.572647        -3.168748
