19
Iteration:  4202charge 0 multiplicity 1
 C         1.425963        -0.381563         0.181982
 C        -0.031582        -0.174386        -0.052460
 C        -1.036244         0.421040        -0.445473
 C        -2.414007         1.106856        -0.382428
 O        -2.822422         1.394076         1.044568
 C        -3.353559        -0.022347        -0.748028
 C        -4.840917         0.157160        -1.398756
 C        -4.176569        -0.608514        -2.567998
 O        -2.885389        -0.689506        -1.959865
 H         1.922256         0.403608         0.818073
 H         1.624834        -1.391754         0.581433
 H         1.999522        -0.460840        -0.702527
 H        -2.477166         1.927036        -1.079257
 H        -2.658691         2.348099         1.213425
 H        -3.547582        -0.671287         0.114952
 H        -5.672572        -0.262115        -0.832825
 H        -5.162999         1.154691        -1.755803
 H        -4.594863        -1.619744        -2.834174
 H        -4.069484         0.082678        -3.386923
