19
Iteration:   840charge 0 multiplicity 1
 C         1.514828         0.013739        -0.012337
 C         0.036779         0.034679        -0.088381
 C        -1.143690         0.027094         0.220884
 C        -2.578602         0.321527         0.210905
 O        -3.357657        -0.397152         1.199586
 C        -3.155535        -0.134783        -1.147896
 C        -4.603312         0.241035        -1.421288
 C        -4.131863         0.659415        -2.796168
 O        -2.703841         0.619008        -2.374977
 H         1.885465        -0.356916        -0.899620
 H         1.819865         1.063297         0.287568
 H         1.914847        -0.678161         0.789039
 H        -2.560422         1.427252         0.357530
 H        -2.686763        -0.959043         1.653305
 H        -2.841126        -1.227464        -1.160886
 H        -5.287968        -0.615070        -1.409357
 H        -4.980849         1.098561        -0.889183
 H        -4.337873        -0.056815        -3.596156
 H        -4.303276         1.559296        -3.382083
