19
Iteration:    72
 C         1.541469        -0.064043         0.410533
 C         0.107792        -0.053193         0.155256
 C        -1.074261         0.040157        -0.102435
 C        -2.521975         0.077151        -0.091597
 O        -2.820698        -0.927992         0.811029
 C        -3.224465        -0.196597        -1.444961
 C        -4.767841         0.116516        -1.476482
 C        -4.308035         1.408904        -2.283228
 O        -2.980930         0.916815        -2.283473
 H         1.939007        -1.103303         0.295058
 H         2.136694         0.663355        -0.201576
 H         1.616765         0.332135         1.554309
 H        -2.897516         1.111775         0.226662
 H        -3.429512        -0.564420         1.408452
 H        -2.869818        -1.158121        -1.877644
 H        -5.264608        -0.672211        -2.037019
 H        -5.246669         0.367697        -0.465301
 H        -4.822176         1.718010        -3.233107
 H        -4.449835         2.278695        -1.603948
