19
Iteration:  3377
 C         1.397251        -0.370410        -0.287609
 C        -0.023077         0.032899        -0.266585
 C        -1.176210         0.400793        -0.012012
 C        -2.572582         0.809946         0.050335
 O        -3.285815         1.091724         1.381435
 C        -3.372724        -0.182642        -0.779872
 C        -4.597345         0.258474        -1.480671
 C        -3.881525        -0.385121        -2.804276
 O        -2.597803        -0.410695        -2.089481
 H         1.934331         0.473957        -0.745475
 H         1.636560        -0.651957         0.704013
 H         1.533344        -1.279820        -1.001434
 H        -2.701101         1.766362        -0.477004
 H        -2.758808         1.658316         1.997540
 H        -3.564234        -1.100783        -0.142280
 H        -5.635340        -0.010275        -1.186897
 H        -4.487593         1.348128        -1.666986
 H        -4.299180        -1.341695        -2.912703
 H        -3.895672         0.239014        -3.725890
