19
Iteration:   232
 C         1.581197        -0.075804         0.046744
 C         0.077049        -0.000067         0.091179
 C        -1.145833         0.148488         0.021195
 C        -2.622147         0.052140         0.115683
 O        -3.094182        -1.008702         1.076757
 C        -3.185835        -0.105442        -1.271005
 C        -4.684847         0.150523        -1.611920
 C        -4.183701         1.165849        -2.683002
 O        -2.827532         1.061542        -2.067726
 H         2.054481         1.070716         0.172220
 H         2.018806        -0.543484         0.975891
 H         2.033950        -0.578918        -0.752917
 H        -3.070701         1.000659         0.525456
 H        -3.309952        -0.594842         1.865426
 H        -2.785668        -1.086156        -1.687156
 H        -5.186427        -0.731951        -2.065151
 H        -5.285923         0.439563        -0.785528
 H        -4.194518         0.751507        -3.685874
 H        -4.646931         2.149423        -2.679006
