19
Iteration:  3362
 C         1.387767        -0.327129        -0.296157
 C         0.026801         0.023100        -0.181949
 C        -1.133201         0.313397         0.092885
 C        -2.498871         0.853374         0.084534
 O        -3.310188         1.048507         1.276580
 C        -3.250387        -0.176704        -0.814132
 C        -4.628616         0.277513        -1.552416
 C        -4.007962        -0.322668        -2.732461
 O        -2.699104        -0.437516        -2.107945
 H         2.006780         0.335263        -0.898193
 H         1.953617        -0.323051         0.703367
 H         1.539842        -1.338504        -0.785079
 H        -2.356848         1.859053        -0.443102
 H        -3.027599         1.897786         1.562067
 H        -3.239010        -1.224541        -0.281862
 H        -5.502851        -0.230921        -1.200274
 H        -4.832534         1.318919        -1.509368
 H        -4.329740        -1.378845        -2.978341
 H        -3.905183         0.380955        -3.525591
