19
Iteration:  2376
 C         1.453461        -0.362028         0.169260
 C         0.071565        -0.001675        -0.058343
 C        -1.094797         0.429686        -0.200724
 C        -2.554829         0.714806        -0.029402
 O        -2.974201         0.471269         1.343454
 C        -3.286841        -0.351750        -1.013324
 C        -4.724337        -0.133286        -1.413005
 C        -4.140465         0.431008        -2.777397
 O        -2.782516         0.094506        -2.301685
 H         1.929739        -0.046434        -0.755712
 H         2.033089         0.376421         0.738908
 H         1.672598        -1.406932         0.590094
 H        -2.998285         1.694368        -0.452527
 H        -3.963301         0.581664         1.185384
 H        -2.929730        -1.361661        -0.734171
 H        -5.422457        -0.999638        -1.432799
 H        -5.270793         0.634102        -0.841517
 H        -4.429468         0.000974        -3.708818
 H        -4.277273         1.517659        -2.846116
