19
Iteration:  3597charge 0 multiplicity 1
 C         1.552528        -0.133527        -0.058094
 C         0.069986         0.064580        -0.131686
 C        -1.083933         0.348073         0.170803
 C        -2.489862         0.631837        -0.147499
 O        -3.156287         1.225241         0.956346
 C        -3.341625        -0.415106        -0.803617
 C        -4.599364         0.320606        -1.325321
 C        -4.192827        -0.186925        -2.689531
 O        -2.878642        -0.648936        -2.146088
 H         1.858411        -1.086611        -0.435278
 H         1.994241         0.589549        -0.687066
 H         1.881673         0.077387         1.025748
 H        -2.302200         1.429589        -0.906235
 H        -2.489716         1.521907         1.644861
 H        -3.491883        -1.292809        -0.261594
 H        -5.643577         0.065631        -1.084988
 H        -4.635326         1.437859        -1.248091
 H        -4.640936        -1.137299        -3.045828
 H        -4.048092         0.376678        -3.611453
