19
Iteration:  1662
 C         1.277444        -0.249252        -0.235382
 C        -0.062421         0.294639         0.014934
 C        -1.222199         0.510103         0.091375
 C        -2.679140         0.447945         0.282571
 O        -3.113834        -0.353605         1.460940
 C        -3.286283        -0.132908        -1.057811
 C        -4.635044         0.249512        -1.621063
 C        -3.847808         0.531586        -2.931341
 O        -2.592999         0.281980        -2.216486
 H         1.811260        -0.028775        -1.118699
 H         1.981769         0.136966         0.578722
 H         0.976062        -1.262874        -0.118772
 H        -3.157401         1.520037         0.466722
 H        -2.485875        -1.060732         1.452875
 H        -3.085424        -1.254081        -1.150712
 H        -5.483506        -0.448145        -1.708779
 H        -5.014861         1.142538        -1.095466
 H        -4.052557        -0.253017        -3.706216
 H        -3.801716         1.595509        -3.480072
