19
Iteration:  1360charge 0 multiplicity 1
 C         1.580924        -0.163184         0.405781
 C         0.116042        -0.026567         0.237079
 C        -1.029376         0.143374        -0.183790
 C        -2.426708         0.346058        -0.043868
 O        -3.061267        -0.091663         1.246425
 C        -3.207364        -0.314915        -1.314121
 C        -4.676463        -0.042620        -1.473826
 C        -4.389755         0.862710        -2.665761
 O        -2.965992         0.525235        -2.515082
 H         1.863730         0.880285         0.851050
 H         1.848630        -0.887666         1.145211
 H         1.933904        -0.413262        -0.573747
 H        -2.758141         1.454887        -0.178857
 H        -2.635829         0.333220         1.950851
 H        -3.013324        -1.429987        -1.391544
 H        -5.273497        -0.945249        -1.613873
 H        -5.145604         0.549536        -0.635356
 H        -4.722951         0.616852        -3.753253
 H        -4.360430         1.999818        -2.519557
