19
Iteration:  4874charge 0 multiplicity 1
 C         1.490737        -0.506460        -0.029037
 C         0.027506        -0.092703         0.104748
 C        -1.068187         0.378479         0.059766
 C        -2.314202         0.941964        -0.399246
 O        -2.853546         2.016023         0.546968
 C        -3.266957        -0.175991        -0.686062
 C        -4.747216         0.044135        -1.209544
 C        -4.350940        -0.631449        -2.520748
 O        -2.943554        -0.786706        -1.948983
 H         1.673778        -0.351721        -1.080700
 H         2.232842        -0.041373         0.623438
 H         1.761904        -1.473126         0.229477
 H        -2.315347         1.315878        -1.430825
 H        -3.858406         1.917896         0.462583
 H        -3.291255        -0.744938         0.265941
 H        -5.487397        -0.500909        -0.609238
 H        -5.072493         1.140619        -1.310404
 H        -4.825296        -1.608356        -2.595313
 H        -4.393042        -0.035177        -3.427701
