19
Iteration:  1438
 C         1.422203        -0.215765         0.196036
 C         0.020003         0.324669        -0.028455
 C        -1.177436         0.415537         0.021281
 C        -2.609496         0.412148         0.008603
 O        -3.042256        -0.196798         1.252063
 C        -3.291739        -0.404923        -1.148957
 C        -4.625736         0.143315        -1.389147
 C        -4.022564         0.917209        -2.651796
 O        -2.791856         0.132121        -2.487348
 H         1.599988        -0.287358         1.336022
 H         1.508314        -1.070171        -0.348047
 H         2.240641         0.420106        -0.272941
 H        -3.024359         1.411519        -0.037236
 H        -2.871681        -1.171584         1.165199
 H        -2.977900        -1.482038        -1.043311
 H        -5.416748        -0.582815        -1.564838
 H        -5.029939         0.842429        -0.653392
 H        -4.484635         0.529591        -3.632695
 H        -3.869486         2.075702        -2.746513
