19
Iteration:  3956charge 0 multiplicity 1
 C         1.336475        -0.561269         0.245673
 C         0.131897         0.199321        -0.260596
 C        -0.945211         0.786631        -0.213912
 C        -2.387254         0.963590        -0.352479
 O        -3.016926         1.189190         0.942239
 C        -3.214380        -0.162177        -0.786391
 C        -4.574670         0.272522        -1.255422
 C        -4.284167        -0.531872        -2.538174
 O        -2.974041        -0.740924        -2.083469
 H         1.004539        -1.578922         0.225009
 H         2.195988        -0.539269        -0.416337
 H         1.551647        -0.284404         1.345077
 H        -2.786962         1.659611        -1.166983
 H        -3.261772         2.068517         1.085571
 H        -3.280354        -0.875582         0.015762
 H        -5.458412        -0.173548        -0.761026
 H        -4.766367         1.316601        -1.514554
 H        -4.838969        -1.520142        -2.527828
 H        -4.335606        -0.076778        -3.563197
