19
Iteration:  2306charge 0 multiplicity 1
 C         1.561112        -0.149544        -0.204785
 C         0.146518         0.056978         0.104919
 C        -1.059243         0.167189         0.208561
 C        -2.507951         0.466468         0.080402
 O        -3.379821         0.435134         1.283630
 C        -3.262131        -0.333845        -1.002380
 C        -4.650657         0.197364        -1.408597
 C        -4.057297         0.484454        -2.799131
 O        -2.762712        -0.089186        -2.376786
 H         1.695972        -0.948664        -0.940368
 H         1.814773         0.573407        -0.865810
 H         2.259682        -0.201986         0.551666
 H        -2.342460         1.607947        -0.120204
 H        -4.183402         0.998808         1.321421
 H        -3.153806        -1.362259        -0.632678
 H        -5.421145        -0.606561        -1.372221
 H        -5.076699         0.982406        -0.732802
 H        -4.606461        -0.044323        -3.685003
 H        -3.839766         1.547119        -3.237309
