19
Iteration:  1613charge 0 multiplicity 1
 C         1.370351        -0.075373        -0.374195
 C        -0.058175         0.151522         0.087429
 C        -1.256578         0.322592         0.254496
 C        -2.633221         0.433230         0.340048
 O        -3.384082        -0.329672         1.315158
 C        -3.138674        -0.226577        -0.987619
 C        -4.524356         0.362943        -1.539158
 C        -3.907287         0.576822        -2.882739
 O        -2.550022         0.227510        -2.332530
 H         1.292015        -0.245614        -1.494031
 H         1.883365         0.822735        -0.449443
 H         1.871926        -0.974382         0.075862
 H        -3.019013         1.557235         0.219008
 H        -3.041587        -0.146843         2.262445
 H        -3.153023        -1.313481        -0.862330
 H        -5.319112        -0.394814        -1.560952
 H        -4.935561         1.293071        -1.137609
 H        -4.080102        -0.234553        -3.616025
 H        -3.867913         1.477471        -3.391237
