19
Iteration:  1902
 C         1.400331        -0.330828         0.555557
 C         0.077626         0.069280         0.126680
 C        -1.082178         0.412400        -0.213635
 C        -2.464477         0.635323        -0.162007
 O        -2.826355         0.122637         1.164285
 C        -3.140933        -0.270122        -1.229222
 C        -4.675233        -0.123712        -1.356046
 C        -4.453866         0.649598        -2.608450
 O        -2.953199         0.326014        -2.600898
 H         1.212653        -1.336407         0.937691
 H         2.252096        -0.444691        -0.153959
 H         1.882592         0.230228         1.530829
 H        -2.844346         1.641116        -0.172303
 H        -2.705125        -0.827093         1.078951
 H        -2.703392        -1.310826        -1.125443
 H        -5.149315        -1.116040        -1.441868
 H        -5.143354         0.229236        -0.421334
 H        -4.900384         0.296247        -3.575325
 H        -4.450177         1.732205        -2.514165
