19
Iteration:  2255
 C         1.383188        -0.086080        -0.263449
 C         0.000439         0.002387        -0.048790
 C        -1.177318         0.250795         0.241298
 C        -2.585546         0.565086         0.139909
 O        -3.207568         0.232598         1.420667
 C        -3.246044        -0.287164        -0.984477
 C        -4.521229         0.403609        -1.429667
 C        -3.956071         0.385286        -2.877018
 O        -2.713400        -0.148082        -2.374331
 H         1.783701        -1.083618         0.150743
 H         1.706111        -0.080885        -1.413056
 H         2.024664         0.692710         0.390267
 H        -2.736314         1.619830        -0.063631
 H        -4.134185         0.284371         1.425365
 H        -3.365026        -1.345057        -0.648338
 H        -5.523319        -0.064148        -1.473980
 H        -4.681243         1.376679        -0.948782
 H        -4.576093        -0.105089        -3.619723
 H        -3.616318         1.291589        -3.329058
