19
Iteration:  3686
 C         1.408832        -0.268137         0.522181
 C         0.124139         0.233255        -0.010167
 C        -0.978625         0.468250        -0.449080
 C        -2.373335         0.857725        -0.383242
 O        -2.754227         1.296461         1.003899
 C        -3.253541        -0.371443        -0.917022
 C        -4.726310        -0.065970        -1.106317
 C        -4.418648        -0.173736        -2.622234
 O        -3.095376        -0.615171        -2.390598
 H         2.169229        -0.311003        -0.274262
 H         1.795119         0.420428         1.231329
 H         1.450417        -1.304947         0.804776
 H        -2.620784         1.698678        -1.080277
 H        -2.301866         0.556922         1.543334
 H        -3.154873        -1.188813        -0.167237
 H        -5.472040        -0.822303        -0.771750
 H        -5.096276         0.873991        -0.666073
 H        -5.068932        -0.954651        -3.086388
 H        -4.581584         0.746479        -3.244158
