19
Iteration:  3676
 C         1.514579        -0.250706         0.448499
 C         0.122537         0.171676         0.098409
 C        -0.961024         0.560321        -0.402046
 C        -2.432876         0.848220        -0.371822
 O        -2.726419         1.279202         0.979623
 C        -3.282765        -0.357484        -0.892078
 C        -4.726626        -0.014985        -1.136947
 C        -4.487399        -0.169714        -2.681534
 O        -3.113592        -0.678327        -2.354780
 H         2.079908        -0.360395        -0.511799
 H         2.043815         0.353991         1.194498
 H         1.354144        -1.154737         0.991681
 H        -2.719270         1.803917        -0.864785
 H        -2.623316         0.457054         1.583457
 H        -2.927760        -1.226486        -0.382998
 H        -5.305375        -0.926471        -0.907685
 H        -5.146225         0.934184        -0.826192
 H        -5.009748        -0.932677        -3.211136
 H        -4.350016         0.763258        -3.296967
