19
Iteration:  2247charge 0 multiplicity 1
 C         1.432830        -0.101514        -0.234366
 C        -0.013924        -0.011076        -0.089675
 C        -1.152857         0.278538         0.194754
 C        -2.627739         0.567067         0.171518
 O        -3.195239         0.205296         1.512117
 C        -3.320063        -0.282927        -0.985880
 C        -4.593190         0.421420        -1.486507
 C        -3.909446         0.395179        -2.899943
 O        -2.678032        -0.154384        -2.395165
 H         1.725561        -0.980731         0.305436
 H         1.567101        -0.103986        -1.340564
 H         2.039942         0.744486         0.099662
 H        -2.573476         1.677088        -0.016483
 H        -4.123854         0.308518         1.427659
 H        -3.245149        -1.295851        -0.548416
 H        -5.456673        -0.163412        -1.225121
 H        -4.597929         1.411074        -1.083600
 H        -4.526517        -0.309089        -3.679561
 H        -3.709301         1.441226        -3.304352
