19
Iteration:  2124charge 0 multiplicity 1
 C         1.421814        -0.238680        -0.200401
 C         0.072096         0.197852         0.080967
 C        -1.170866         0.379789         0.121383
 C        -2.590550         0.619730         0.183777
 O        -3.287756         0.034542         1.311413
 C        -3.198258        -0.134867        -0.999766
 C        -4.647738         0.413077        -1.465657
 C        -4.012039         0.274461        -2.853613
 O        -2.661375        -0.008959        -2.351066
 H         2.129125         0.531279         0.017585
 H         1.698323        -1.070601         0.496026
 H         1.479990        -0.572346        -1.204157
 H        -2.869004         1.738252         0.021824
 H        -2.922929        -0.836920         1.489494
 H        -3.293321        -1.204883        -0.634168
 H        -5.411293        -0.241728        -1.121857
 H        -4.780389         1.474374        -1.265335
 H        -4.300269        -0.722509        -3.455305
 H        -4.127626         1.120881        -3.568514
