19
Iteration:  1901
 C         1.397772        -0.329558         0.558869
 C         0.081520         0.071940         0.123355
 C        -1.075323         0.402731        -0.207109
 C        -2.459781         0.631735        -0.159241
 O        -2.818637         0.126655         1.160694
 C        -3.146695        -0.275305        -1.235889
 C        -4.678458        -0.129671        -1.359896
 C        -4.456290         0.653015        -2.604764
 O        -2.955733         0.331144        -2.590798
 H         1.217035        -1.329167         0.940630
 H         2.211398        -0.444607        -0.129406
 H         1.888248         0.244510         1.491130
 H        -2.874777         1.672224        -0.154701
 H        -2.729257        -0.794917         1.060886
 H        -2.699491        -1.327806        -1.142475
 H        -5.146266        -1.127746        -1.455629
 H        -5.195090         0.253219        -0.453758
 H        -4.912757         0.290519        -3.594830
 H        -4.407668         1.715721        -2.551253
