19
Iteration:  3446
 C         1.153931        -0.487248        -0.344904
 C        -0.057648         0.269246        -0.073790
 C        -1.110764         0.847357        -0.078043
 C        -2.541061         1.047950         0.066456
 O        -2.973710         0.910630         1.495456
 C        -3.406928        -0.047762        -0.769800
 C        -4.671985         0.252680        -1.742708
 C        -3.822394        -0.476710        -2.861531
 O        -2.672732        -0.726520        -1.981198
 H         2.000047        -0.034144         0.263123
 H         0.883597        -1.553532        -0.226179
 H         1.441813        -0.345778        -1.371132
 H        -2.775008         2.061863        -0.190399
 H        -3.021343        -0.092849         1.649989
 H        -3.646883        -0.900927        -0.015406
 H        -5.547586        -0.307673        -1.344972
 H        -4.822363         1.356004        -1.852611
 H        -4.201677        -1.456674        -3.190503
 H        -3.564768         0.234457        -3.742943
