19
Iteration:  3149charge 0 multiplicity 1
 C         1.551185        -0.279530         0.595751
 C         0.245601         0.179797        -0.082667
 C        -0.958176         0.418403        -0.163152
 C        -2.359308         0.820785        -0.344050
 O        -2.989948         0.741087         0.932817
 C        -3.174725        -0.357416        -1.033513
 C        -4.686196        -0.014547        -1.075785
 C        -4.436296         0.169612        -2.601881
 O        -3.141776        -0.383473        -2.517353
 H         1.481747        -0.308335         1.740183
 H         1.919324        -1.272091         0.170077
 H         2.219309         0.536703         0.436117
 H        -2.543719         1.744436        -0.992689
 H        -3.228364         1.636451         1.187003
 H        -2.794814        -1.358851        -0.708386
 H        -5.384471        -0.788223        -0.768934
 H        -5.141690         0.934307        -0.657385
 H        -5.107809        -0.520483        -3.186883
 H        -4.584239         1.184363        -2.894639
