19
Iteration:  4388charge 0 multiplicity 1
 C         1.627310        -0.316948         0.316350
 C         0.228385         0.020967         0.225104
 C        -0.941436         0.269112        -0.060972
 C        -2.242705         0.893628        -0.422052
 O        -2.827544         1.770044         0.564049
 C        -3.374150        -0.265486        -0.859041
 C        -4.881759        -0.105818        -1.057490
 C        -4.578894        -0.502249        -2.604110
 O        -3.122273        -0.613876        -2.234236
 H         1.604248        -1.389932         0.006396
 H         2.321042         0.365830        -0.210441
 H         1.966165        -0.344316         1.396887
 H        -2.109247         1.259042        -1.469076
 H        -2.210945         2.551096         0.638812
 H        -3.101119        -1.114965        -0.256330
 H        -5.338561        -0.793892        -0.316871
 H        -5.319685         0.900639        -0.794108
 H        -5.004745        -1.457469        -2.986033
 H        -4.744322         0.384048        -3.221849
