19
Iteration:  3851charge 0 multiplicity 1
 C         1.471526        -0.325115         0.301023
 C         0.117575        -0.086699         0.007987
 C        -1.046242         0.212848         0.110375
 C        -2.239682         0.882937        -0.343357
 O        -2.898245         1.640483         0.720795
 C        -3.169474        -0.224595        -0.971174
 C        -4.706586        -0.085131        -1.025009
 C        -4.448702        -0.561582        -2.467538
 O        -3.081009        -0.258108        -2.454823
 H         1.774113        -0.237318         1.378730
 H         1.814667        -1.300574         0.001246
 H         2.055977         0.414726        -0.235927
 H        -2.115482         1.508156        -1.202375
 H        -3.709596         1.262308         1.071284
 H        -2.996401        -1.271114        -0.533050
 H        -5.462584        -0.744400        -0.565144
 H        -5.087847         0.940557        -0.944937
 H        -4.599122        -1.673434        -2.695939
 H        -4.831714         0.021884        -3.361068
