19
Iteration:   605charge 0 multiplicity 1
 C         1.606802        -0.048031         0.466433
 C         0.191926         0.032656         0.115634
 C        -1.016692         0.118035         0.024389
 C        -2.499101         0.163502        -0.020643
 O        -3.246172        -0.491701         1.014503
 C        -3.104457        -0.210810        -1.442765
 C        -4.586103         0.034669        -1.371865
 C        -4.419488         1.044593        -2.538231
 O        -2.989215         0.724178        -2.523537
 H         1.994013         0.947495         0.837956
 H         1.748496        -0.735164         1.213103
 H         2.225785        -0.403387        -0.282652
 H        -2.556752         1.216984         0.034559
 H        -2.675523        -0.957815         1.648187
 H        -2.733237        -1.176501        -1.818485
 H        -5.203829        -0.820050        -1.655494
 H        -4.832500         0.348197        -0.375047
 H        -4.847539         0.911800        -3.520717
 H        -4.528532         2.089494        -2.219579
