19
Iteration:  4937charge 0 multiplicity 1
 C         1.532222        -0.449334         0.244725
 C         0.099022         0.058495         0.081705
 C        -0.972811         0.508041        -0.203004
 C        -2.334889         0.876982        -0.528651
 O        -2.863183         1.843615         0.573917
 C        -3.240913        -0.290304        -0.752978
 C        -4.695165         0.253138        -1.148054
 C        -4.508033        -0.587946        -2.426474
 O        -3.118619        -0.963781        -2.033064
 H         2.283690         0.240753        -0.170067
 H         1.781432        -0.416517         1.396510
 H         1.504680        -1.457556        -0.323979
 H        -2.243997         1.517017        -1.433055
 H        -2.268888         1.636432         1.341044
 H        -3.146937        -1.087981        -0.049598
 H        -5.610499         0.049853        -0.600514
 H        -4.711200         1.320213        -1.541607
 H        -5.081990        -1.557854        -2.593028
 H        -4.444360         0.023251        -3.364685
