19
Iteration:  3485charge 0 multiplicity 1
 C         1.177563        -0.412740        -0.298558
 C        -0.017444         0.324906        -0.316589
 C        -1.186041         0.624707        -0.178192
 C        -2.585790         0.967255         0.037635
 O        -3.204720         0.941385         1.388105
 C        -3.380561        -0.213249        -0.714261
 C        -4.496758         0.393267        -1.540592
 C        -3.818272        -0.403167        -2.733047
 O        -2.614932        -0.711119        -1.953205
 H         1.470294        -0.600209         0.695268
 H         1.082448        -1.439301        -0.629433
 H         2.074884        -0.082830        -0.972855
 H        -2.866570         1.915136        -0.516905
 H        -2.499893         0.524993         1.903235
 H        -3.547018        -1.004842        -0.058522
 H        -5.544526         0.070528        -1.442920
 H        -4.432292         1.476343        -1.710463
 H        -4.453641        -1.248915        -3.097605
 H        -3.570464         0.101164        -3.654653
