19
Iteration:  2908
 C         1.346015        -0.333694        -0.106806
 C        -0.091715         0.037602        -0.175271
 C        -1.158469         0.571317         0.033056
 C        -2.554591         0.789708         0.031543
 O        -2.947052         0.651911         1.437933
 C        -3.332529        -0.168263        -0.857337
 C        -4.672960         0.260198        -1.557500
 C        -3.948269        -0.161706        -2.808095
 O        -2.734897        -0.209591        -2.195257
 H         1.518518        -1.460863        -0.273916
 H         1.865074         0.108384        -1.030309
 H         1.815471         0.123485         0.729272
 H        -2.879788         1.675383        -0.529225
 H        -3.709498        -0.001548         1.501849
 H        -3.304891        -1.220247        -0.510920
 H        -5.624168        -0.244905        -1.489579
 H        -4.788803         1.296223        -1.545741
 H        -4.174926        -1.147776        -3.284608
 H        -3.935801         0.623724        -3.613310
