19
Iteration:  1795
 C         1.658140        -0.099991         0.201252
 C         0.213378        -0.117753         0.342206
 C        -0.949758         0.122048         0.145681
 C        -2.441574         0.371826        -0.008207
 O        -3.412289         0.014010         0.987598
 C        -3.106323        -0.190163        -1.279343
 C        -4.605963         0.085205        -1.297426
 C        -4.435825         0.597669        -2.666616
 O        -2.914766         0.450009        -2.570382
 H         2.217767         0.410404         0.983052
 H         1.953620        -1.204838         0.085983
 H         1.859708         0.387440        -0.722897
 H        -2.601327         1.558170        -0.150806
 H        -3.128061         0.413225         1.787897
 H        -2.756596        -1.212117        -1.408940
 H        -5.179189        -0.852040        -1.236732
 H        -4.786897         0.783797        -0.498616
 H        -4.628298         0.131381        -3.599445
 H        -4.802173         1.688877        -2.644975
