19
Iteration:  4503
 C         1.482434        -0.293617         0.543769
 C         0.191593         0.143979        -0.036083
 C        -0.881092         0.479484        -0.452959
 C        -2.349979         0.999175        -0.496664
 O        -2.535115         1.644856         0.761840
 C        -3.368242        -0.226062        -0.783393
 C        -4.816221         0.036144        -1.218283
 C        -4.532027        -0.369218        -2.608167
 O        -3.293631        -1.080075        -2.109006
 H         2.281777         0.252081        -0.021619
 H         1.510992        -0.023312         1.611799
 H         1.690297        -1.379320         0.641612
 H        -2.537999         1.813253        -1.235738
 H        -2.351781         1.167581         1.624663
 H        -3.090648        -1.036476         0.024618
 H        -5.517996        -0.607110        -0.721606
 H        -5.117494         1.057579        -0.909342
 H        -5.215823        -1.174803        -2.988812
 H        -4.196108         0.422946        -3.340245
