19
Iteration:  4487charge 0 multiplicity 1
 C         1.459346        -0.288567         0.575235
 C         0.223267         0.259818        -0.079064
 C        -0.900086         0.461821        -0.428032
 C        -2.262843         0.895481        -0.562540
 O        -2.680748         1.609010         0.741624
 C        -3.317009        -0.350571        -0.862713
 C        -4.780915         0.150044        -1.071766
 C        -4.484560        -0.387433        -2.579559
 O        -3.295206        -1.015067        -2.098208
 H         2.381017        -0.349308        -0.067828
 H         1.554113         0.193294         1.572675
 H         1.291366        -1.383733         0.681654
 H        -2.334636         1.708118        -1.299460
 H        -2.060571         1.094708         1.233482
 H        -3.251966        -0.956064        -0.012548
 H        -5.573813        -0.481157        -0.571348
 H        -5.216780         1.158886        -0.854635
 H        -5.200179        -1.040204        -3.082990
 H        -4.307775         0.434022        -3.280656
