19
Iteration:  2112
 C         1.476228        -0.220937        -0.200330
 C         0.127474         0.188379         0.159428
 C        -1.119128         0.367655         0.112577
 C        -2.572090         0.551044         0.146414
 O        -3.324787         0.107656         1.346644
 C        -3.307710        -0.109189        -1.012221
 C        -4.573155         0.332480        -1.429358
 C        -4.039810         0.230837        -2.897801
 O        -2.691379         0.062390        -2.374260
 H         2.198978         0.510206        -0.279088
 H         1.725359        -0.977627         0.547093
 H         1.556705        -0.808809        -1.116841
 H        -2.768765         1.690381         0.347965
 H        -3.304487        -0.843861         1.194944
 H        -3.243414        -1.249844        -0.856086
 H        -5.498095        -0.162101        -1.344182
 H        -4.848560         1.320754        -1.046766
 H        -4.501362        -0.710806        -3.565995
 H        -4.048011         1.193164        -3.439743
