19
Iteration:  3743
 C         1.390800        -0.308880         0.650087
 C         0.134396         0.036299        -0.068191
 C        -0.860147         0.555556        -0.515297
 C        -2.331214         0.873077        -0.395679
 O        -2.780596         1.237639         0.917557
 C        -3.102944        -0.314977        -0.964729
 C        -4.733778        -0.137519        -0.982482
 C        -4.558426        -0.251321        -2.530514
 O        -3.134699        -0.456278        -2.431501
 H         2.182940         0.484317         0.480952
 H         1.250873        -0.507979         1.750610
 H         1.616646        -1.267618         0.359558
 H        -2.484954         1.611629        -1.214594
 H        -3.161183         2.080203         0.767965
 H        -3.020611        -1.247523        -0.498116
 H        -5.329853        -0.923801        -0.437528
 H        -4.980915         0.889866        -0.738079
 H        -4.987557        -1.056421        -3.065862
 H        -4.785206         0.777043        -2.991379
