19
Iteration:  2386charge 0 multiplicity 1
 C         1.454691        -0.350120         0.179523
 C         0.041882         0.064859        -0.050971
 C        -1.093930         0.486070        -0.118624
 C        -2.506085         0.691590        -0.118146
 O        -2.934678         0.459986         1.319545
 C        -3.247052        -0.356393        -0.992545
 C        -4.757200        -0.125426        -1.421145
 C        -4.168372         0.448551        -2.757007
 O        -2.830101         0.080095        -2.345191
 H         2.117692        -0.338143        -0.682567
 H         1.803851         0.009553         1.084260
 H         1.421661        -1.488045         0.357614
 H        -2.723282         1.831373        -0.271407
 H        -3.905624         0.349541         1.328392
 H        -2.987568        -1.392379        -0.700414
 H        -5.262941        -1.125675        -1.415311
 H        -5.282494         0.641941        -0.822253
 H        -4.263307        -0.209523        -3.618078
 H        -4.447981         1.542393        -2.971949
