19
Iteration:  4583charge 0 multiplicity 1
 C         1.568737        -0.370241         0.200762
 C         0.162207         0.005888        -0.100735
 C        -1.034084         0.414818        -0.031676
 C        -2.387124         0.881622        -0.387516
 O        -2.911080         1.697279         0.710087
 C        -3.380212        -0.226997        -0.685969
 C        -4.692400         0.250340        -1.338204
 C        -4.383516        -0.565334        -2.536272
 O        -3.057634        -0.871851        -2.026706
 H         2.197982         0.368607         0.624336
 H         1.536255        -1.233430         0.931350
 H         2.081880        -0.504492        -0.839529
 H        -2.440474         1.531662        -1.321174
 H        -2.137726         2.079967         1.193534
 H        -3.434263        -1.137341         0.043393
 H        -5.548945         0.006462        -0.654133
 H        -4.710932         1.356152        -1.580802
 H        -5.032083        -1.448526        -2.672638
 H        -4.349771        -0.138381        -3.575489
