19
Iteration:  3232
 C         1.462428        -0.205416         0.438783
 C         0.082524        -0.031732         0.012056
 C        -1.005623         0.364922        -0.332278
 C        -2.382889         0.753328        -0.319803
 O        -2.741919         0.983005         1.149667
 C        -3.310546        -0.339889        -0.951109
 C        -4.766497        -0.008763        -1.247345
 C        -4.375965         0.079796        -2.731526
 O        -3.006202        -0.339449        -2.323753
 H         1.721571        -1.240330         0.318307
 H         2.161134         0.368534        -0.206478
 H         1.727017         0.166340         1.532415
 H        -2.600734         1.628351        -0.885473
 H        -3.695225         1.054328         1.210047
 H        -2.960099        -1.282853        -0.499435
 H        -5.384539        -0.888299        -1.089514
 H        -5.223535         0.873747        -0.842453
 H        -4.865368        -0.608810        -3.382774
 H        -4.430320         1.049416        -3.270050
