19
Iteration:   983charge 0 multiplicity 1
 C         1.511389         0.114671        -0.020166
 C        -0.002375         0.201579         0.041170
 C        -1.232347         0.252901        -0.045750
 C        -2.634854         0.335029         0.131316
 O        -3.299730        -0.363386         1.195227
 C        -3.360313        -0.365051        -1.096992
 C        -4.623951         0.380279        -1.416383
 C        -3.783514         1.000937        -2.556800
 O        -2.730272        -0.104092        -2.455656
 H         2.058331         0.887603         0.506077
 H         1.876336        -0.920519         0.407986
 H         1.722866         0.237712        -1.140137
 H        -2.908009         1.443511         0.174058
 H        -2.460897        -0.869536         1.534851
 H        -3.436924        -1.408973        -0.984122
 H        -5.303842        -0.397331        -1.665832
 H        -4.950383         1.136129        -0.743935
 H        -4.295424         0.994452        -3.511842
 H        -3.410704         2.065806        -2.319302
