19
Iteration:  3535charge 0 multiplicity 1
 C         1.437264        -0.234677        -0.341405
 C        -0.009612        -0.000479        -0.026715
 C        -1.119845         0.430032         0.122752
 C        -2.485248         0.864463         0.003431
 O        -3.080429         1.048933         1.282165
 C        -3.448748        -0.092052        -0.782199
 C        -4.736989         0.271725        -1.646944
 C        -3.920233        -0.377013        -2.837462
 O        -2.796276        -0.635319        -1.949175
 H         1.998129        -1.077789         0.254885
 H         1.661211        -0.465757        -1.448684
 H         1.970113         0.674735        -0.229530
 H        -2.482006         1.746434        -0.633473
 H        -2.614230         1.897039         1.580119
 H        -3.528109        -1.060485        -0.103152
 H        -5.636753        -0.287680        -1.421793
 H        -4.878224         1.343778        -1.806131
 H        -4.320926        -1.339323        -3.171600
 H        -3.835037         0.363365        -3.688860
