19
Iteration:  3342
 C         1.442924        -0.307487        -0.284620
 C         0.060509         0.012704         0.026183
 C        -1.074474         0.357618         0.311331
 C        -2.445275         0.856086        -0.096432
 O        -3.222942         0.945608         1.131040
 C        -3.370785        -0.104891        -0.852470
 C        -4.658164         0.234644        -1.377339
 C        -4.076188        -0.260414        -2.782714
 O        -2.745393        -0.462753        -2.166029
 H         1.787244         0.272239        -1.122976
 H         2.268827        -0.024025         0.376030
 H         1.583563        -1.470208        -0.547578
 H        -2.277738         1.792803        -0.702418
 H        -3.355874         1.921524         1.220613
 H        -3.420573        -1.142691        -0.344398
 H        -5.527472        -0.271829        -1.011409
 H        -4.830067         1.295436        -1.301708
 H        -4.409033        -1.167822        -3.129527
 H        -3.960152         0.368489        -3.655584
