19
Iteration:   717
 C         1.403386        -0.386683         0.219988
 C         0.054539         0.082816        -0.035254
 C        -1.129564         0.390349        -0.035832
 C        -2.574330         0.379335         0.059418
 O        -3.152921        -0.343369         1.144746
 C        -3.026873        -0.128471        -1.272943
 C        -4.569423        -0.327708        -1.553453
 C        -4.244136         0.809463        -2.681001
 O        -2.890797         0.959838        -2.162830
 H         1.298559        -0.998217         1.097890
 H         1.811058        -0.992796        -0.578565
 H         2.236602         0.430224         0.384585
 H        -2.935347         1.442108         0.137710
 H        -2.332494        -0.322194         1.742668
 H        -2.317992        -1.072915        -1.531647
 H        -4.858005        -1.268327        -2.011484
 H        -5.172825        -0.095853        -0.632443
 H        -4.111256         0.294756        -3.696537
 H        -4.980667         1.668719        -2.503670
