19
Iteration:  2185
 C         1.350257        -0.189202        -0.221008
 C        -0.030118         0.127821        -0.046420
 C        -1.259569         0.318331        -0.087585
 C        -2.637981         0.553874         0.199210
 O        -3.037331        -0.011827         1.512494
 C        -3.437334        -0.148400        -0.898325
 C        -4.665090         0.448630        -1.676424
 C        -3.816244         0.284027        -2.933726
 O        -2.618606         0.017911        -2.168836
 H         1.941511        -0.115267         0.816908
 H         1.399188        -1.273380        -0.520820
 H         1.980160         0.467818        -0.940920
 H        -2.878318         1.618091         0.188009
 H        -3.196200         0.728070         2.058768
 H        -3.505330        -1.247993        -0.758110
 H        -5.495167        -0.258110        -1.394762
 H        -5.016046         1.452868        -1.318092
 H        -4.119247        -0.567591        -3.456156
 H        -3.746542         1.106416        -3.656628
