19
Iteration:  1692
 C         1.339283        -0.189498        -0.060322
 C        -0.131290         0.046000        -0.087329
 C        -1.235342         0.483372         0.089063
 C        -2.696583         0.506350         0.279853
 O        -2.940752        -0.266177         1.458429
 C        -3.307831        -0.120577        -1.049267
 C        -4.660797         0.158481        -1.668384
 C        -3.954099         0.550191        -2.944708
 O        -2.618748         0.375316        -2.222944
 H         1.953284         0.471038        -0.677864
 H         1.595831        -0.266872         0.953302
 H         1.459322        -1.298073        -0.448690
 H        -3.122730         1.586724         0.241185
 H        -2.643319        -1.228799         1.256069
 H        -3.057290        -1.167856        -1.104812
 H        -5.418601        -0.603611        -1.789781
 H        -5.198000         1.008522        -1.214477
 H        -4.022498        -0.196482        -3.747897
 H        -3.918446         1.502959        -3.391252
