19
Iteration:   581
 C         1.620112         0.069145         0.453806
 C         0.194796         0.000019         0.165708
 C        -1.018738        -0.076333        -0.015319
 C        -2.510524         0.184201        -0.092555
 O        -3.076852        -0.541834         0.991222
 C        -3.244420        -0.229357        -1.360783
 C        -4.820452         0.094687        -1.484094
 C        -4.385947         1.064032        -2.559255
 O        -2.874789         0.726764        -2.386294
 H         2.036332         1.092643         0.451672
 H         1.711825        -0.266509         1.511149
 H         2.240652        -0.555046        -0.086401
 H        -2.397232         1.265208        -0.087435
 H        -2.547693        -0.469883         1.744817
 H        -3.011717        -1.262789        -1.621601
 H        -5.408644        -0.742062        -1.945603
 H        -5.350961         0.439011        -0.573072
 H        -4.720563         0.934447        -3.554539
 H        -4.437288         2.077051        -2.291312
