19
Iteration:  4933
 C         1.551285        -0.454988         0.227434
 C         0.121301         0.035928         0.070197
 C        -0.980678         0.489947        -0.163334
 C        -2.325012         0.884790        -0.493072
 O        -2.869664         1.862920         0.538286
 C        -3.233390        -0.286490        -0.750688
 C        -4.721496         0.226947        -1.152735
 C        -4.473250        -0.596024        -2.441464
 O        -3.127915        -0.926958        -2.028471
 H         2.306595         0.216092        -0.206175
 H         1.647622        -0.332963         1.250326
 H         1.451711        -1.414255        -0.271092
 H        -2.352942         1.477095        -1.415175
 H        -2.405324         1.535989         1.348118
 H        -3.239916        -1.094132         0.079011
 H        -5.650084         0.092534        -0.567204
 H        -4.643623         1.240872        -1.448174
 H        -5.041651        -1.495121        -2.580073
 H        -4.466965        -0.027697        -3.382241
