19
Iteration:  3299charge 0 multiplicity 1
 C         1.525369        -0.308017        -0.052512
 C         0.131594         0.121322         0.187530
 C        -1.061504         0.394781         0.135257
 C        -2.431177         0.729719        -0.181832
 O        -3.149888         1.031031         1.173712
 C        -3.190341        -0.375127        -1.011713
 C        -4.642145         0.210346        -1.291708
 C        -4.264178        -0.071484        -2.702011
 O        -2.896003        -0.505932        -2.391491
 H         1.473800        -0.409882        -1.120427
 H         2.272727         0.452592         0.068441
 H         1.712836        -1.330798         0.555844
 H        -2.464919         1.662357        -0.720315
 H        -3.596656         1.891769         1.111622
 H        -3.249100        -1.300384        -0.388063
 H        -5.457992        -0.308785        -0.810533
 H        -4.655819         1.289816        -1.067092
 H        -4.804215        -0.808147        -3.230088
 H        -4.393822         0.798190        -3.374044
