19
Iteration:  1214charge 0 multiplicity 1
 C         1.394533        -0.504255         0.327720
 C         0.109641         0.146530        -0.107816
 C        -1.095739         0.389871        -0.034826
 C        -2.519376         0.530151         0.029677
 O        -3.025471        -0.208307         1.325634
 C        -3.092833        -0.044044        -1.207798
 C        -4.626248        -0.196461        -1.523297
 C        -4.265204         0.485840        -2.873691
 O        -2.956044         0.903167        -2.264460
 H         1.911547        -1.070985        -0.371819
 H         2.019203         0.409201         0.595001
 H         1.097239        -1.163297         1.099513
 H        -2.830808         1.609712         0.172462
 H        -2.553360        -1.115720         1.413275
 H        -2.459191        -0.995738        -1.301822
 H        -5.070175        -1.221517        -1.473401
 H        -5.232105         0.587559        -1.063941
 H        -4.177157        -0.377710        -3.574017
 H        -4.949759         1.316323        -3.261006
