19
Iteration:  1428charge 0 multiplicity 1
 C         1.404682        -0.230971         0.234502
 C         0.099524         0.298417        -0.028275
 C        -1.134596         0.439752        -0.115435
 C        -2.660475         0.404507         0.007136
 O        -3.072480        -0.204307         1.283899
 C        -3.229024        -0.382127        -1.122191
 C        -4.650548         0.184684        -1.419764
 C        -4.097836         0.857708        -2.647218
 O        -2.773346         0.155403        -2.498460
 H         1.607248        -0.189489         1.363540
 H         1.559242        -1.224968         0.035726
 H         2.194422         0.458199        -0.246871
 H        -3.066569         1.438519         0.142091
 H        -2.658822        -1.142729         1.216048
 H        -3.054257        -1.492513        -1.104215
 H        -5.345662        -0.590973        -1.745122
 H        -5.033434         0.678410        -0.544441
 H        -4.609981         0.757557        -3.638375
 H        -3.928555         1.983939        -2.427667
