19
Iteration:  2244charge 0 multiplicity 1
 C         1.442571        -0.114782        -0.223726
 C         0.000726        -0.004815        -0.099451
 C        -1.184549         0.289648         0.176416
 C        -2.613337         0.558571         0.190799
 O        -3.184471         0.197558         1.534702
 C        -3.330992        -0.259524        -0.986729
 C        -4.620477         0.420770        -1.517906
 C        -3.905425         0.411925        -2.905279
 O        -2.666517        -0.168813        -2.382569
 H         1.800566        -1.059423         0.306248
 H         1.622709        -0.213830        -1.407622
 H         2.021748         0.911571         0.057723
 H        -2.668921         1.624283         0.014440
 H        -4.150883         0.347688         1.410261
 H        -3.258499        -1.305783        -0.618822
 H        -5.475507        -0.176344        -1.170272
 H        -4.627280         1.446826        -1.143510
 H        -4.337864        -0.321965        -3.622104
 H        -3.857214         1.409810        -3.323762
