19
Iteration:  3134charge 0 multiplicity 1
 C         1.504642        -0.203456         0.469977
 C         0.186590         0.097734         0.109517
 C        -0.911211         0.448390        -0.197096
 C        -2.324787         0.668027        -0.303811
 O        -3.051997         0.821710         0.988968
 C        -3.152260        -0.347112        -1.112575
 C        -4.629351         0.010051        -1.089526
 C        -4.538677         0.139973        -2.604442
 O        -3.098350        -0.368829        -2.558822
 H         1.548132        -0.180554         1.500530
 H         1.591105        -1.209418         0.318748
 H         2.338435         0.439235         0.088239
 H        -2.455086         1.686323        -0.766540
 H        -2.867966         1.673339         1.348193
 H        -2.945118        -1.228916        -0.577370
 H        -5.224789        -0.881280        -0.829124
 H        -4.766850         0.811662        -0.394085
 H        -5.170061        -0.542478        -3.276919
 H        -4.355205         1.179740        -3.050251
