19
Iteration:   866charge 0 multiplicity 1
 C         1.456344         0.059673         0.040240
 C         0.028870        -0.025019        -0.081681
 C        -1.177652         0.155650         0.061173
 C        -2.623086         0.250550         0.186922
 O        -3.190219        -0.386773         1.445300
 C        -3.255757        -0.234671        -1.180566
 C        -4.650684         0.299833        -1.522939
 C        -4.069838         0.782797        -2.860416
 O        -2.680847         0.474849        -2.345472
 H         2.044536         0.207035        -0.949094
 H         1.649539         0.912314         0.709348
 H         1.919544        -0.789275         0.425088
 H        -2.704456         1.339273         0.259426
 H        -2.718576        -1.225555         1.546441
 H        -3.131634        -1.384972        -1.225133
 H        -5.366212        -0.517046        -1.557000
 H        -5.028694         1.224767        -1.037365
 H        -4.245118         0.246433        -3.844431
 H        -4.074268         1.862775        -3.097046
