19
Iteration:  4100
 C         1.381605        -0.315592        -0.247217
 C         0.008627        -0.131738         0.077730
 C        -0.997423         0.501381         0.035453
 C        -2.376569         0.856856        -0.292389
 O        -3.077366         1.584298         0.735188
 C        -3.312198        -0.198606        -0.673276
 C        -4.626271         0.292815        -1.348447
 C        -3.952492        -0.243804        -2.589101
 O        -3.058927        -1.057424        -1.817272
 H         1.880223         0.392705        -0.808052
 H         1.966363        -0.250957         0.634782
 H         1.478724        -1.395507        -0.588716
 H        -2.151415         1.551488        -1.069281
 H        -3.733183         0.923268         1.054753
 H        -3.502381        -0.855972         0.200525
 H        -5.516235        -0.288473        -1.026407
 H        -4.910010         1.353393        -1.435741
 H        -4.479093        -0.773563        -3.418872
 H        -3.448279         0.539893        -3.238608
