19
Iteration:  1207
 C         1.374428        -0.471789         0.308656
 C         0.052566         0.146753        -0.165217
 C        -1.132792         0.390259         0.032214
 C        -2.541427         0.511822         0.090516
 O        -2.998131        -0.202321         1.277764
 C        -3.123947        -0.043321        -1.195338
 C        -4.575215        -0.144627        -1.489444
 C        -4.227224         0.421933        -2.855552
 O        -2.915677         0.908416        -2.284414
 H         1.740340        -1.313361        -0.481870
 H         2.074915         0.259504         0.658061
 H         1.048119        -1.043525         1.222201
 H        -2.953923         1.569065         0.091646
 H        -2.422803        -1.032909         1.210271
 H        -2.642699        -0.927442        -1.586417
 H        -4.936708        -1.202831        -1.421370
 H        -5.314900         0.401836        -0.820225
 H        -4.205592        -0.221898        -3.731740
 H        -4.772007         1.270566        -3.210377
