19
Iteration:   409charge 0 multiplicity 1
 C         1.345974         0.215400        -0.223551
 C        -0.051466         0.064903         0.014381
 C        -1.264688         0.086556         0.179518
 C        -2.715991         0.135546         0.236046
 O        -3.308356        -0.892936         1.198706
 C        -3.168543        -0.107429        -1.164477
 C        -4.591676         0.207520        -1.618476
 C        -3.870053         1.048874        -2.659677
 O        -2.543340         0.689758        -2.132955
 H         2.068439        -0.751193        -0.324353
 H         1.396969         0.790493        -1.128184
 H         1.871582         0.678798         0.647147
 H        -3.042358         1.235396         0.529275
 H        -2.541106        -1.512025         1.070504
 H        -2.894910        -1.157015        -1.430477
 H        -5.185237        -0.619642        -1.967191
 H        -5.128701         0.651684        -0.869650
 H        -4.042042         0.763261        -3.699301
 H        -4.171821         2.098920        -2.498836
