19
Iteration:   498charge 0 multiplicity 1
 C         1.535267         0.169899         0.251715
 C         0.090633         0.211212        -0.030563
 C        -1.141236         0.168514         0.009723
 C        -2.614540         0.088237         0.154769
 O        -3.276943        -0.840516         0.984800
 C        -3.271708        -0.186297        -1.220104
 C        -4.667870         0.282758        -1.383867
 C        -4.068815         1.087957        -2.573160
 O        -2.719442         0.502993        -2.406691
 H         2.116447         0.037922        -0.769385
 H         1.927938         1.084394         0.781985
 H         1.742712        -0.860282         0.806999
 H        -2.960552         1.220554         0.347080
 H        -2.498504        -1.416923         1.258547
 H        -3.146201        -1.292356        -1.361854
 H        -5.360476        -0.515472        -1.606807
 H        -4.996384         0.926418        -0.594365
 H        -4.355218         0.869917        -3.646641
 H        -3.965409         2.220402        -2.445760
