19
Iteration:  3159charge 0 multiplicity 1
 C         1.544569        -0.282006         0.640291
 C         0.292619         0.192351        -0.124204
 C        -0.921405         0.438217        -0.191536
 C        -2.396730         0.772083        -0.449975
 O        -2.936282         0.747357         0.966181
 C        -3.190404        -0.322042        -1.063719
 C        -4.787256        -0.023611        -1.093145
 C        -4.499165         0.148526        -2.584114
 O        -3.092050        -0.372113        -2.440863
 H         1.281259        -0.661966         1.639619
 H         2.098516        -1.102335         0.160055
 H         2.229799         0.506291         0.675602
 H        -2.665886         1.765798        -0.985727
 H        -3.453703         1.470638         1.237520
 H        -2.922582        -1.151435        -0.440561
 H        -5.384236        -0.885059        -0.822605
 H        -5.028320         0.950035        -0.558237
 H        -4.979959        -0.414028        -3.504188
 H        -4.314236         1.192369        -2.901018
