19
Iteration:  1336
 C         1.665303        -0.163924         0.413388
 C         0.199491         0.001751         0.167419
 C        -1.004023         0.014990         0.059273
 C        -2.456374         0.342914        -0.137734
 O        -3.197465        -0.064151         1.025988
 C        -3.162562        -0.249901        -1.340927
 C        -4.734644        -0.046999        -1.306997
 C        -4.398346         0.775271        -2.589370
 O        -2.953807         0.631160        -2.532448
 H         2.131925         0.836131         0.495792
 H         1.811351        -0.647088         1.466127
 H         1.971680        -0.744888        -0.413236
 H        -2.619952         1.436180        -0.291713
 H        -2.711217         0.334145         1.777229
 H        -2.840583        -1.329003        -1.498415
 H        -5.377780        -0.934902        -1.515036
 H        -5.058918         0.463888        -0.342431
 H        -4.697533         0.260916        -3.598720
 H        -4.590646         1.923046        -2.641152
