19
Iteration:  1376charge 0 multiplicity 1
 C         1.496081        -0.139192         0.407346
 C         0.072872        -0.057206         0.142119
 C        -1.079521         0.217326        -0.087115
 C        -2.546068         0.409610        -0.084027
 O        -2.910477        -0.138436         1.196960
 C        -3.260114        -0.272231        -1.235110
 C        -4.811811        -0.034408        -1.470078
 C        -4.266699         0.888064        -2.652381
 O        -2.881336         0.415557        -2.510444
 H         1.967038         0.629822         0.969075
 H         1.730158        -1.075579         1.029201
 H         2.112397        -0.015041        -0.549899
 H        -2.642994         1.573467        -0.012901
 H        -2.280563         0.217239         1.857510
 H        -2.857439        -1.262080        -1.390226
 H        -5.285192        -0.950664        -1.847724
 H        -5.362751         0.492241        -0.703289
 H        -4.634587         0.636351        -3.607082
 H        -4.426622         1.928179        -2.458311
