19
Iteration:  4147charge 0 multiplicity 1
 C         1.438991        -0.479837        -0.105069
 C         0.161421         0.257893        -0.090173
 C        -1.012473         0.429744         0.059400
 C        -2.415804         0.780084        -0.171223
 O        -3.089827         1.593117         0.784862
 C        -3.420155        -0.279483        -0.689953
 C        -4.647630         0.322384        -1.367283
 C        -4.110477        -0.359210        -2.716177
 O        -2.981080        -0.978852        -1.888667
 H         2.309703         0.276005        -0.124627
 H         1.777512        -1.049179         0.800228
 H         1.353955        -1.129269        -0.969083
 H        -2.438933         1.440831        -1.096961
 H        -2.564643         1.649612         1.668517
 H        -3.849292        -0.966921        -0.043586
 H        -5.586988         0.063205        -0.860167
 H        -4.639013         1.424587        -1.375855
 H        -4.621690        -1.092929        -3.385707
 H        -3.627954         0.262496        -3.448427
