19
Iteration:  2958
 C         1.370233        -0.434143        -0.086816
 C         0.098802         0.254298        -0.046540
 C        -1.056508         0.626089         0.035867
 C        -2.474665         0.871666         0.041194
 O        -3.072533         0.546009         1.320028
 C        -3.292979        -0.166223        -0.960040
 C        -4.686832         0.186933        -1.410926
 C        -4.193962        -0.221603        -2.848833
 O        -2.699609        -0.224976        -2.275985
 H         1.430384        -1.015923        -0.963642
 H         2.224196         0.163400         0.018892
 H         1.313206        -1.119961         0.817923
 H        -2.687364         1.961190        -0.311153
 H        -3.786570         1.222457         1.452939
 H        -3.182429        -1.175376        -0.533744
 H        -5.633231        -0.329644        -1.092144
 H        -4.879634         1.320401        -1.363954
 H        -4.497951        -1.249761        -3.170701
 H        -4.192207         0.448283        -3.705928
