19
Iteration:  3025charge 0 multiplicity 1
 C         1.483287        -0.229732         0.070893
 C         0.046610        -0.025360         0.020780
 C        -1.103881         0.335490         0.053543
 C        -2.424204         0.791549        -0.178562
 O        -3.113318         0.920930         1.126307
 C        -3.168828        -0.292264        -1.014627
 C        -4.729037         0.020257        -1.248908
 C        -4.283443        -0.152279        -2.715659
 O        -2.789946        -0.052661        -2.362384
 H         1.966731         0.521497        -0.480006
 H         1.870567        -0.205314         1.060969
 H         1.710777        -1.269787        -0.281757
 H        -2.487243         1.822863        -0.677634
 H        -3.129143         0.079012         1.594671
 H        -2.952694        -1.243582        -0.510222
 H        -5.502919        -0.677470        -0.839584
 H        -4.850826         1.054483        -0.857218
 H        -4.496377        -1.190571        -3.159353
 H        -4.611371         0.623580        -3.395498
