19
Iteration:    77
 C         1.556712        -0.039992         0.410070
 C         0.100777        -0.074667         0.188521
 C        -1.065088         0.053732        -0.073567
 C        -2.479703         0.090393        -0.100326
 O        -2.827410        -0.936269         0.809715
 C        -3.236273        -0.236008        -1.443252
 C        -4.773914         0.107635        -1.483248
 C        -4.360036         1.439029        -2.285306
 O        -2.985539         0.921687        -2.322175
 H         1.949612        -1.082985         0.335591
 H         2.143655         0.702387        -0.115491
 H         1.674168         0.098641         1.395576
 H        -2.826528         1.042976         0.232838
 H        -3.370868        -0.530043         1.568535
 H        -2.889308        -1.178084        -1.887883
 H        -5.364645        -0.667355        -2.011412
 H        -5.138686         0.434808        -0.533327
 H        -4.742469         1.757246        -3.246013
 H        -4.421239         2.316278        -1.583177
