19
Iteration:   176charge 0 multiplicity 1
 C         1.586847        -0.056607         0.371205
 C         0.141425        -0.061816         0.077536
 C        -1.062752         0.060006        -0.022313
 C        -2.522309         0.032549        -0.003811
 O        -2.981487        -0.894702         1.008802
 C        -3.134240        -0.097765        -1.408631
 C        -4.781750         0.143919        -1.453672
 C        -4.321401         1.234336        -2.460038
 O        -2.918789         1.014090        -2.325906
 H         2.233586         0.499555        -0.466460
 H         1.741129         0.429785         1.381279
 H         1.998458        -1.032358         0.384642
 H        -2.872095         1.059844         0.241895
 H        -3.839780        -1.268749         0.651421
 H        -2.829146        -1.078332        -1.845797
 H        -5.471734        -0.660149        -1.866622
 H        -5.178275         0.557586        -0.562424
 H        -4.640808         1.085849        -3.466917
 H        -4.687899         2.193125        -2.054791
