19
Iteration:   765charge 0 multiplicity 1
 C         1.479113        -0.281101        -0.014067
 C         0.069482         0.009262         0.154015
 C        -1.122712         0.174488         0.352552
 C        -2.557287         0.483405         0.147869
 O        -3.160372        -0.439150         1.121801
 C        -3.068389        -0.040569        -1.235820
 C        -4.569118        -0.085223        -1.515125
 C        -4.263896         0.632450        -2.808559
 O        -2.878601         0.918064        -2.355400
 H         1.711926        -1.352224         0.102154
 H         1.803311         0.128516        -1.044505
 H         1.986893         0.295234         0.720441
 H        -2.790267         1.535317         0.101163
 H        -3.208646        -0.072527         2.025004
 H        -2.382009        -0.896072        -1.514681
 H        -4.877241        -1.129211        -1.658691
 H        -5.184408         0.398933        -0.767831
 H        -4.242075        -0.077904        -3.711140
 H        -4.893812         1.561750        -2.949874
