19
Iteration:  1911
 C         1.424592        -0.375432         0.548631
 C         0.033447         0.080117         0.127300
 C        -1.022968         0.489710        -0.247037
 C        -2.508674         0.605967        -0.158562
 O        -2.914658         0.082093         1.183604
 C        -3.116674        -0.205772        -1.224426
 C        -4.626211        -0.125898        -1.276595
 C        -4.386432         0.667658        -2.613465
 O        -2.963375         0.273784        -2.658934
 H         1.353268        -1.417021         0.833802
 H         2.134505        -0.265309        -0.203642
 H         1.625811         0.173233         1.516037
 H        -2.749311         1.733022        -0.289164
 H        -2.490683        -0.780085         1.278764
 H        -2.689849        -1.257741        -1.094555
 H        -5.157920        -1.073169        -1.476696
 H        -4.907082         0.402105        -0.338103
 H        -4.949043         0.285656        -3.556682
 H        -4.773593         1.640934        -2.424133
