19
Iteration:   567charge 0 multiplicity 1
 C         1.549857         0.139059         0.459818
 C         0.134975        -0.053020         0.228246
 C        -1.012361        -0.089549        -0.176275
 C        -2.417831         0.119603        -0.072168
 O        -3.022612        -0.566850         1.012436
 C        -3.318208        -0.201188        -1.288328
 C        -4.782034         0.097609        -1.523301
 C        -4.263353         1.147827        -2.603354
 O        -2.940085         0.687940        -2.335827
 H         1.808994         1.087766         0.028805
 H         1.903997         0.064612         1.607683
 H         2.093773        -0.740793        -0.115718
 H        -2.789471         1.180199         0.207844
 H        -2.537495        -0.247697         1.864145
 H        -3.134312        -1.260490        -1.565226
 H        -5.234140        -0.830967        -1.919518
 H        -5.391718         0.562444        -0.686112
 H        -4.582416         0.890226        -3.634430
 H        -4.516894         2.177296        -2.390129
