19
Iteration:   170charge 0 multiplicity 1
 C         1.609280        -0.062033         0.378523
 C         0.156626        -0.035403         0.075113
 C        -1.056168         0.098787        -0.054231
 C        -2.495170         0.036975         0.007333
 O        -3.051639        -0.909934         0.999092
 C        -3.105650        -0.122892        -1.450787
 C        -4.757608         0.138291        -1.425798
 C        -4.364355         1.204531        -2.401423
 O        -2.921666         1.009223        -2.342405
 H         2.126896         0.380179        -0.346666
 H         1.654306         0.484974         1.288234
 H         2.056525        -1.127622         0.580224
 H        -2.814400         1.077979         0.231701
 H        -3.758498        -1.242561         0.519288
 H        -2.917947        -1.118150        -1.857232
 H        -5.384266        -0.532720        -1.936029
 H        -5.007113         0.784069        -0.496862
 H        -4.736156         1.143288        -3.492983
 H        -4.573521         2.212438        -2.016489
