19
Iteration:  2580
 C         1.563448        -0.233141         0.295126
 C         0.150816        -0.150921         0.086757
 C        -1.011756         0.229812         0.077168
 C        -2.425556         0.723988        -0.070134
 O        -3.007568         0.708469         1.187164
 C        -3.192355        -0.212993        -1.199285
 C        -4.703421        -0.001936        -1.259141
 C        -4.453056         0.116537        -2.770212
 O        -2.971985         0.105082        -2.600390
 H         1.920022        -1.088116         1.004561
 H         2.144635        -0.298365        -0.710652
 H         1.779526         0.656312         0.896706
 H        -2.333108         1.842965        -0.462443
 H        -3.506405        -0.125091         1.427890
 H        -2.827376        -1.213624        -0.854935
 H        -5.410613        -0.729315        -0.837940
 H        -4.822490         0.952717        -0.723257
 H        -4.787043        -0.808020        -3.165800
 H        -4.711067         0.911569        -3.367151
