19
Iteration:  3313
 C         1.461380        -0.305398        -0.196226
 C         0.145145         0.070046         0.333569
 C        -1.005037         0.420467         0.100434
 C        -2.443641         0.765416        -0.069550
 O        -3.207869         1.008242         1.145016
 C        -3.255147        -0.301988        -0.880580
 C        -4.574989         0.227727        -1.295068
 C        -4.245853        -0.125239        -2.822309
 O        -2.879718        -0.505859        -2.363404
 H         1.527855        -0.216490        -1.322966
 H         2.259590         0.288865         0.192318
 H         1.783620        -1.322005        -0.032799
 H        -2.439105         1.631337        -0.726286
 H        -3.554955         1.936719         0.989955
 H        -3.208397        -1.260227        -0.489145
 H        -5.484677        -0.296657        -0.890344
 H        -4.710796         1.338887        -1.048924
 H        -4.763434        -1.123206        -3.112659
 H        -4.080712         0.730323        -3.563909
