19
Iteration:  4612
 C         1.564277        -0.457685        -0.004385
 C         0.238861         0.119316         0.220724
 C        -0.929593         0.489998        -0.008755
 C        -2.242096         1.011048        -0.344009
 O        -2.997502         1.564193         0.685752
 C        -3.343371        -0.114246        -0.729939
 C        -4.804934         0.308593        -1.447160
 C        -4.396665        -0.628486        -2.541203
 O        -3.103388        -0.983442        -1.966779
 H         2.316105        -0.181465         0.790715
 H         1.505425        -1.551752         0.188949
 H         1.824479        -0.297513        -1.048946
 H        -2.260611         1.783945        -1.110132
 H        -2.698449         2.314771         1.129902
 H        -3.410862        -0.870069         0.003776
 H        -5.515113        -0.093775        -0.777048
 H        -4.843354         1.346309        -1.787124
 H        -5.136952        -1.474036        -2.510540
 H        -4.295592        -0.244803        -3.592186
