19
Iteration:  1601
 C         1.352366        -0.001421        -0.422311
 C         0.006063         0.060713         0.063118
 C        -1.163376         0.210667         0.315411
 C        -2.694448         0.436595         0.317427
 O        -3.413800        -0.300432         1.331353
 C        -3.237115        -0.106314        -1.038702
 C        -4.542464         0.293612        -1.531525
 C        -3.828852         0.552978        -2.898851
 O        -2.554144         0.216706        -2.333392
 H         1.361499        -0.474162        -1.455545
 H         1.820903         0.960402        -0.305900
 H         2.046169        -0.577879         0.208085
 H        -2.830714         1.563831         0.568946
 H        -3.261001         0.181512         2.160750
 H        -3.018404        -1.162722        -0.953109
 H        -5.400696        -0.397086        -1.495336
 H        -4.799473         1.193372        -0.959157
 H        -4.255312        -0.101230        -3.668458
 H        -3.972815         1.533841        -3.181488
