19
Iteration:  3635charge 0 multiplicity 1
 C         1.637512        -0.213463         0.157366
 C         0.208584         0.171578         0.108406
 C        -0.985567         0.403006        -0.095598
 C        -2.403228         0.829049        -0.291774
 O        -3.091402         1.198414         0.887699
 C        -3.246876        -0.247841        -0.891185
 C        -4.748391         0.153247        -1.232846
 C        -4.335520        -0.165674        -2.699294
 O        -3.070415        -0.754691        -2.196345
 H         1.940055        -0.983245        -0.648607
 H         2.342112         0.719887         0.162080
 H         1.926721        -0.781305         1.026925
 H        -2.496931         1.702609        -0.963899
 H        -2.904770         0.454224         1.464204
 H        -3.206102        -1.007757        -0.051913
 H        -5.421255        -0.599430        -0.813775
 H        -5.002517         1.147047        -0.894890
 H        -5.011741        -0.846655        -3.126060
 H        -4.190443         0.701859        -3.353481
