19
Iteration:  3066charge 0 multiplicity 1
 C         1.667441        -0.191498         0.234155
 C         0.230711         0.002616         0.045661
 C        -1.007987         0.176432        -0.048980
 C        -2.420557         0.790095        -0.110013
 O        -3.078489         1.103882         1.161365
 C        -3.221740        -0.320178        -1.012307
 C        -4.802911        -0.160373        -1.233377
 C        -4.443628        -0.009032        -2.791756
 O        -2.937807        -0.132468        -2.449325
 H         2.254412         0.663419         0.598813
 H         1.660355        -0.847497         1.126330
 H         2.260168        -0.686766        -0.540552
 H        -2.357386         1.694815        -0.770616
 H        -3.680532         0.278059         1.296824
 H        -2.868936        -1.337105        -0.887850
 H        -5.562085        -0.939833        -0.985684
 H        -5.037759         0.874661        -1.010013
 H        -4.746586        -0.925868        -3.355212
 H        -4.764703         1.005362        -3.337128
