19
Iteration:  2484charge 0 multiplicity 1
 C         1.528063        -0.373737         0.319701
 C         0.161119        -0.017291         0.094380
 C        -0.967674         0.382519        -0.058203
 C        -2.400938         0.722089        -0.106659
 O        -3.148044         0.442915         1.201330
 C        -3.166687        -0.124127        -1.120420
 C        -4.617742        -0.027176        -1.192014
 C        -4.439749         0.110107        -2.766847
 O        -2.934156         0.191291        -2.607977
 H         2.148849         0.189993         0.965072
 H         1.516072        -1.359579         0.557316
 H         2.039522        -0.275876        -0.650906
 H        -2.560239         1.706080        -0.378730
 H        -3.296384         1.251283         1.679886
 H        -2.818878        -1.141358        -1.012752
 H        -5.273290        -0.875873        -0.874184
 H        -4.935418         0.886875        -0.620619
 H        -4.798477        -0.817019        -3.353898
 H        -4.951464         0.987719        -3.323694
