19
Iteration:  3248charge 0 multiplicity 1
 C         1.600963        -0.256293         0.386347
 C         0.183390        -0.025074        -0.059819
 C        -0.963667         0.316409        -0.338644
 C        -2.452000         0.774982        -0.180112
 O        -2.943500         0.997034         1.102205
 C        -3.324359        -0.266475        -0.879128
 C        -4.849005         0.009164        -1.237861
 C        -4.292880         0.016209        -2.715262
 O        -2.956849        -0.345379        -2.371033
 H         2.126789        -1.188317         0.051058
 H         2.233759         0.527537        -0.046527
 H         1.421822        -0.179012         1.384217
 H        -2.490080         1.798015        -0.693328
 H        -3.826618         1.292730         0.996407
 H        -3.124155        -1.244593        -0.365078
 H        -5.536583        -0.812825        -0.932392
 H        -5.174677         0.995779        -0.785267
 H        -4.818123        -0.775736        -3.441676
 H        -4.317306         1.094564        -3.050910
