19
Iteration:  1833
 C         1.531137        -0.130156         0.400871
 C         0.158114        -0.088159         0.174460
 C        -1.030542         0.080174         0.061738
 C        -2.436248         0.455960        -0.121509
 O        -3.089344         0.143780         1.089742
 C        -3.145483        -0.257319        -1.303214
 C        -4.658533        -0.093656        -1.312948
 C        -4.430644         0.672016        -2.703380
 O        -2.955853         0.487993        -2.543335
 H         1.599292        -0.277338         1.523544
 H         1.982047        -0.983644        -0.046878
 H         2.158763         0.807803         0.190476
 H        -2.420119         1.566138        -0.460488
 H        -2.373420        -0.165699         1.751954
 H        -2.894457        -1.362044        -1.415583
 H        -5.235632        -1.018403        -1.349167
 H        -5.297710         0.556054        -0.667711
 H        -5.034780         0.167825        -3.541264
 H        -4.707067         1.699670        -2.563004
