19
Iteration:  1274
 C         1.585348        -0.241787         0.330955
 C         0.127333        -0.137765         0.333901
 C        -1.018450         0.124235         0.106385
 C        -2.417025         0.448270        -0.034789
 O        -3.141874        -0.062688         1.128801
 C        -3.025815        -0.075917        -1.333467
 C        -4.601291        -0.115865        -1.396425
 C        -4.518837         0.596451        -2.772246
 O        -3.054033         0.802412        -2.551770
 H         2.029740         0.275673        -0.613277
 H         2.120827         0.042985         1.164897
 H         1.986883        -1.280981         0.348508
 H        -2.500749         1.539299         0.110332
 H        -2.658758        -0.771653         1.575891
 H        -2.567128        -1.037544        -1.520782
 H        -5.101981        -1.059464        -1.242165
 H        -5.155454         0.569750        -0.731047
 H        -4.727055        -0.031835        -3.608072
 H        -4.966661         1.521991        -3.004811
