19
Iteration:   774
 C         1.479906        -0.233263        -0.035622
 C         0.083029         0.016829         0.232128
 C        -1.123988         0.150532         0.358687
 C        -2.532730         0.416812         0.193431
 O        -3.211437        -0.425713         1.111660
 C        -2.984532        -0.035778        -1.236025
 C        -4.591799        -0.067445        -1.460935
 C        -4.238307         0.631676        -2.858209
 O        -2.903108         0.901938        -2.406512
 H         1.719341        -1.235938        -0.218888
 H         1.736837         0.249548        -1.024599
 H         2.366289         0.073075         0.606817
 H        -2.883325         1.445101         0.390845
 H        -3.150906        -0.006614         1.981343
 H        -2.631571        -1.120169        -1.532468
 H        -5.162792        -1.025305        -1.459234
 H        -5.095161         0.630882        -0.785425
 H        -4.241088         0.133631        -3.906734
 H        -5.016545         1.449332        -3.118973
