19
Iteration:  1514charge 0 multiplicity 1
 C         1.409017         0.144503        -0.211956
 C        -0.002716        -0.031100        -0.053308
 C        -1.165954        -0.034918         0.321797
 C        -2.622170         0.334758         0.145507
 O        -3.317476        -0.053888         1.280350
 C        -3.278936        -0.282626        -1.123316
 C        -4.641105         0.236723        -1.526322
 C        -3.909864         0.709743        -2.778395
 O        -2.636899         0.232322        -2.274207
 H         1.944009        -0.851785        -0.034948
 H         1.484160         0.375282        -1.217770
 H         1.920180         0.884930         0.438519
 H        -2.648685         1.414366         0.073759
 H        -2.685562        -0.036835         2.048280
 H        -2.996360        -1.357462        -0.979206
 H        -5.406315        -0.526002        -1.697251
 H        -4.945565         1.010681        -0.819077
 H        -4.108921         0.256364        -3.800851
 H        -3.844083         1.794919        -2.858411
