19
Iteration:  2751
 C         1.515171        -0.266642        -0.125571
 C         0.065511         0.035111         0.061389
 C        -1.139032         0.299348        -0.016142
 C        -2.588964         0.641752        -0.003957
 O        -3.049433         0.826467         1.371130
 C        -3.339271        -0.358952        -0.967751
 C        -4.732021         0.134305        -1.419053
 C        -4.016954         0.359595        -2.818135
 O        -2.768779        -0.362872        -2.309555
 H         2.094261         0.662975        -0.258822
 H         1.775063        -0.855718         0.719433
 H         1.752133        -1.041560        -0.924456
 H        -2.812072         1.689454        -0.527847
 H        -3.923060         0.508775         1.485441
 H        -3.330025        -1.408072        -0.543339
 H        -5.576521        -0.521309        -1.298579
 H        -4.965756         0.979836        -0.771328
 H        -4.489450        -0.179427        -3.699090
 H        -3.689076         1.374318        -3.154813
