19
Iteration:  1721charge 0 multiplicity 1
 C         1.429717        -0.170668         0.048136
 C        -0.050538        -0.018715        -0.025813
 C        -1.187133         0.367653        -0.020890
 C        -2.643098         0.449216         0.154888
 O        -3.110389        -0.167997         1.335020
 C        -3.267773        -0.170291        -1.079134
 C        -4.674886         0.123620        -1.552240
 C        -4.052081         0.533981        -2.856351
 O        -2.652614         0.490745        -2.228489
 H         2.029527         0.757907        -0.210997
 H         1.726648        -0.701931         1.013324
 H         1.779836        -0.889321        -0.725819
 H        -2.942412         1.425264         0.049558
 H        -2.363510        -0.758826         1.609435
 H        -2.969812        -1.276721        -1.209036
 H        -5.388364        -0.704393        -1.650856
 H        -5.111825         1.038337        -1.116728
 H        -4.130033        -0.228415        -3.678321
 H        -4.165769         1.562402        -3.264924
