19
Iteration:  1383
 C         1.546066        -0.151526         0.392243
 C         0.042744        -0.036528         0.103815
 C        -1.144834         0.246745        -0.077513
 C        -2.555481         0.457039        -0.066809
 O        -2.892192        -0.153667         1.155675
 C        -3.269175        -0.258455        -1.259104
 C        -4.762952         0.000195        -1.515263
 C        -4.284262         0.878498        -2.578933
 O        -2.865881         0.352586        -2.451785
 H         1.801665         0.617039         1.246355
 H         1.703448        -1.050063         0.857262
 H         2.176404        -0.080044        -0.510669
 H        -2.825249         1.573000         0.044003
 H        -2.146369         0.057212         1.833799
 H        -2.964414        -1.340220        -1.301822
 H        -5.216966        -0.915041        -1.875297
 H        -5.479794         0.547434        -0.891704
 H        -4.642155         0.517405        -3.583199
 H        -4.233809         2.010877        -2.542220
