19
Iteration:  2668
 C         1.506280        -0.365295         0.248923
 C         0.106857         0.113946         0.024168
 C        -1.067141         0.487548        -0.096775
 C        -2.520270         0.735829        -0.212750
 O        -2.927780         0.537707         1.344204
 C        -3.234853        -0.300195        -1.025176
 C        -4.709083         0.044517        -1.371661
 C        -4.228922         0.339823        -2.716024
 O        -2.948985        -0.245908        -2.486572
 H         1.848298        -0.952369        -0.665306
 H         2.321378         0.429486         0.424650
 H         1.485588        -1.171182         0.980124
 H        -2.919512         1.753536        -0.521954
 H        -3.461815         1.385074         1.529562
 H        -3.155033        -1.309374        -0.636606
 H        -5.400858        -0.802381        -1.264787
 H        -5.044563         0.893616        -0.741463
 H        -4.819173        -0.149280        -3.461605
 H        -4.143105         1.337014        -3.046111
