19
Iteration:  4840charge 0 multiplicity 1
 C         1.264281        -0.587863        -0.032898
 C        -0.026810        -0.018921         0.110942
 C        -1.039063         0.666403        -0.108583
 C        -2.374058         1.039617        -0.469657
 O        -2.856733         1.814162         0.719445
 C        -3.206360        -0.219650        -0.643705
 C        -4.649556         0.084640        -1.254307
 C        -4.299963        -0.633132        -2.499021
 O        -2.908234        -0.910783        -1.917901
 H         1.479162        -0.928777        -1.025413
 H         2.065215         0.165121        -0.087496
 H         1.399799        -1.493519         0.490513
 H        -2.311984         1.670214        -1.391615
 H        -3.328020         2.598195         0.417220
 H        -3.117288        -0.907177         0.213523
 H        -5.385904        -0.231039        -0.511316
 H        -4.750625         1.228518        -1.412268
 H        -4.735116        -1.618809        -2.750901
 H        -4.181360        -0.136308        -3.459085
