19
Iteration:   903charge 0 multiplicity 1
 C         1.445916         0.054811         0.031679
 C        -0.028280         0.149775         0.172928
 C        -1.197896         0.199603        -0.134197
 C        -2.624198         0.252678         0.041738
 O        -2.990720        -0.390016         1.338428
 C        -3.456153        -0.248569        -1.076434
 C        -4.784721         0.348659        -1.626449
 C        -3.884892         0.886606        -2.742452
 O        -2.654532         0.200736        -2.232686
 H         1.660164         0.823231        -0.776594
 H         1.996813         0.288746         0.953107
 H         1.813936        -1.086936        -0.265293
 H        -2.961846         1.340479         0.156786
 H        -2.463686        -1.254209         1.199351
 H        -3.474194        -1.323817        -1.213156
 H        -5.528895        -0.479703        -1.732602
 H        -5.325585         1.118742        -1.029296
 H        -4.405470         0.608784        -3.745727
 H        -3.709946         2.015773        -2.697171
