19
Iteration:  3668charge 0 multiplicity 1
 C         1.522178        -0.247635         0.380308
 C         0.116329         0.150918         0.154570
 C        -0.911302         0.613414        -0.303176
 C        -2.435614         0.868350        -0.370972
 O        -2.727446         1.222275         0.955235
 C        -3.245830        -0.318660        -0.912510
 C        -4.809171        -0.012050        -1.222065
 C        -4.482521        -0.165543        -2.686950
 O        -3.115746        -0.718627        -2.296752
 H         2.123594        -0.447610        -0.595495
 H         2.169529         0.559908         0.955664
 H         1.469929        -1.149007         0.990788
 H        -2.595865         1.702395        -1.070784
 H        -2.875405         0.526510         1.668637
 H        -3.010243        -1.253252        -0.449441
 H        -5.424286        -0.742604        -0.684325
 H        -5.155184         0.900731        -0.765023
 H        -5.043482        -0.813756        -3.285665
 H        -4.302983         0.762566        -3.252881
