19
Iteration:  4445
 C         1.495293        -0.300137         0.498139
 C         0.169782         0.126967         0.066752
 C        -0.904875         0.417904        -0.393548
 C        -2.322192         0.785353        -0.603269
 O        -2.963916         1.487372         0.554212
 C        -3.229216        -0.382449        -0.786818
 C        -4.654917         0.244407        -1.002522
 C        -4.475820        -0.307395        -2.370694
 O        -3.158419        -0.847293        -2.187081
 H         2.323836        -0.729527        -0.247683
 H         1.964903         0.648886         0.833087
 H         1.393511        -1.065260         1.210794
 H        -2.555563         1.309459        -1.585565
 H        -2.480021         2.250426         0.900182
 H        -2.943573        -1.288786        -0.146691
 H        -5.376447        -0.267062        -0.286553
 H        -4.640093         1.356501        -0.885999
 H        -5.228269        -1.085845        -2.797504
 H        -4.532398         0.375666        -3.252919
