19
Iteration:  3335charge 0 multiplicity 1
 C         1.436006        -0.297168        -0.258654
 C         0.100340         0.010912         0.127140
 C        -1.049218         0.396630         0.291625
 C        -2.408393         0.817091        -0.117263
 O        -3.211264         0.950115         1.100938
 C        -3.291451        -0.191176        -0.879791
 C        -4.712675         0.260523        -1.433411
 C        -4.117505        -0.231738        -2.740448
 O        -2.787226        -0.464751        -2.187729
 H         1.547645         0.118598        -1.314668
 H         2.255877         0.029806         0.355080
 H         1.579077        -1.342250        -0.500661
 H        -2.268469         1.760262        -0.618818
 H        -3.443247         1.857975         1.185692
 H        -3.274330        -1.075984        -0.314538
 H        -5.586002        -0.307451        -1.002463
 H        -4.868676         1.371875        -1.263042
 H        -4.498877        -1.282581        -3.038432
 H        -4.041665         0.680111        -3.424158
