19
Iteration:  1920
 C         1.357192        -0.406766         0.548609
 C         0.093429         0.071361         0.122063
 C        -0.992634         0.558317        -0.240377
 C        -2.461243         0.596465        -0.109661
 O        -3.004862         0.070492         1.151619
 C        -3.099546        -0.226366        -1.295801
 C        -4.583220        -0.119780        -1.225528
 C        -4.373121         0.654934        -2.584259
 O        -2.999949         0.252291        -2.647186
 H         1.555376        -1.482197         0.631492
 H         2.015965        -0.012924        -0.183812
 H         1.667772         0.148610         1.357821
 H        -2.939389         1.677824        -0.088980
 H        -2.302178        -0.537504         1.406884
 H        -2.638560        -1.234184        -1.282061
 H        -5.141973        -1.068233        -1.312225
 H        -5.138658         0.569771        -0.583577
 H        -4.932494         0.214637        -3.473276
 H        -4.450615         1.788640        -2.610832
