19
Iteration:   473charge 0 multiplicity 1
 C         1.497578         0.153176         0.038911
 C         0.070043         0.296578         0.229202
 C        -1.121335         0.145618         0.116872
 C        -2.592276         0.134658         0.192896
 O        -3.265643        -0.887881         1.039406
 C        -3.241822        -0.207285        -1.226644
 C        -4.666930         0.309013        -1.493829
 C        -4.041642         1.127007        -2.597581
 O        -2.724861         0.466933        -2.379501
 H         1.686423        -0.378043        -0.980515
 H         1.987712         1.069617         0.035229
 H         1.908537        -0.412373         0.809516
 H        -2.932962         1.121994         0.531386
 H        -2.980799        -1.673683         0.604003
 H        -3.079410        -1.310768        -1.339941
 H        -5.402426        -0.402317        -1.860720
 H        -5.003906         0.928411        -0.689099
 H        -4.314274         0.755871        -3.600473
 H        -3.956973         2.273765        -2.649431
