19
Iteration:  2477
 C         1.520051        -0.420601         0.287160
 C         0.117686         0.022065         0.123066
 C        -1.014091         0.446740        -0.055389
 C        -2.394127         0.722590        -0.071065
 O        -3.112144         0.411706         1.130655
 C        -3.102782        -0.145014        -1.139390
 C        -4.625419        -0.007342        -1.193511
 C        -4.434869         0.129600        -2.745600
 O        -2.967377         0.161264        -2.567621
 H         1.986899         0.390300         0.923411
 H         1.632520        -1.499456         0.732811
 H         2.085646        -0.392279        -0.704044
 H        -2.503364         1.829434        -0.542859
 H        -3.426775         1.164680         1.577678
 H        -2.812067        -1.199709        -0.865642
 H        -5.191199        -0.876423        -0.910192
 H        -4.927376         0.896408        -0.666182
 H        -4.591432        -0.764958        -3.311282
 H        -4.868250         1.074762        -3.185998
