19
Iteration:  2750
 C         1.513746        -0.258842        -0.124351
 C         0.060638         0.030551         0.061511
 C        -1.136964         0.297320        -0.027405
 C        -2.590486         0.648476        -0.006324
 O        -3.047476         0.826886         1.377852
 C        -3.333191        -0.363950        -0.968070
 C        -4.725852         0.131422        -1.427089
 C        -4.019938         0.361307        -2.819733
 O        -2.771457        -0.359148        -2.305493
 H         2.125798         0.644881        -0.250151
 H         1.751942        -0.829560         0.760360
 H         1.746163        -1.098253        -0.929370
 H        -2.803368         1.687331        -0.571084
 H        -3.936646         0.501909         1.514306
 H        -3.344686        -1.428172        -0.568779
 H        -5.592479        -0.527320        -1.304121
 H        -4.944967         0.991395        -0.742290
 H        -4.484333        -0.166282        -3.675449
 H        -3.712355         1.346522        -3.112978
