19
Iteration:  3204
 C         1.420208        -0.198047         0.530535
 C         0.036160         0.111101         0.133648
 C        -1.034571         0.414281        -0.348820
 C        -2.412279         0.772780        -0.349828
 O        -2.577998         0.920923         1.148342
 C        -3.351549        -0.390548        -1.066995
 C        -4.729508        -0.061159        -1.153007
 C        -4.404508         0.139670        -2.705017
 O        -3.021925        -0.410530        -2.500033
 H         1.376758        -1.289743         0.836138
 H         2.121074        -0.315244        -0.366328
 H         1.861414         0.409825         1.235405
 H        -2.753915         1.745112        -0.864163
 H        -3.466881         1.089306         1.398654
 H        -2.985129        -1.334822        -0.615875
 H        -5.445733        -0.838971        -0.870752
 H        -4.936532         0.972398        -0.726597
 H        -5.058473        -0.519417        -3.407813
 H        -4.476411         1.220514        -2.961319
