19
Iteration:  4479charge 0 multiplicity 1
 C         1.418790        -0.311378         0.535969
 C         0.257769         0.283466        -0.060737
 C        -0.917136         0.472017        -0.408022
 C        -2.278142         0.827353        -0.596366
 O        -2.721706         1.515271         0.653422
 C        -3.288548        -0.319508        -0.795248
 C        -4.771902         0.195427        -1.106545
 C        -4.515588        -0.360072        -2.486249
 O        -3.247921        -0.976595        -2.114468
 H         2.414201        -0.304090        -0.079011
 H         1.581080         0.219108         1.485522
 H         1.178696        -1.244976         0.958426
 H        -2.402019         1.599298        -1.407655
 H        -2.168868         1.367358         1.395715
 H        -3.182821        -1.121686         0.028412
 H        -5.451669        -0.459586        -0.525672
 H        -5.035241         1.246594        -0.884139
 H        -5.115821        -1.156147        -3.021654
 H        -4.256430         0.553353        -3.060647
