19
Iteration:  4413charge 0 multiplicity 1
 C         1.596989        -0.294992         0.387545
 C         0.166464        -0.035800         0.147974
 C        -0.933982         0.403631        -0.031560
 C        -2.242540         0.941888        -0.557136
 O        -2.823522         1.629350         0.624995
 C        -3.245319        -0.269790        -0.900558
 C        -4.784279         0.004737        -1.043454
 C        -4.558534        -0.398009        -2.547807
 O        -3.229021        -0.805290        -2.247848
 H         2.094013        -1.120290        -0.247799
 H         1.986896         0.713768         0.319317
 H         1.781387        -0.558637         1.403670
 H        -2.198624         1.414922        -1.561288
 H        -2.521612         2.599718         0.513772
 H        -2.858553        -1.133497        -0.206068
 H        -5.328279        -0.691258        -0.363413
 H        -5.273712         0.981304        -0.853616
 H        -5.297580        -1.270750        -2.665597
 H        -4.621474         0.425053        -3.316453
