19
Iteration:  1855
 C         1.582052        -0.252226         0.590323
 C         0.255090         0.032208         0.063988
 C        -0.957194         0.164398        -0.191267
 C        -2.512519         0.443123        -0.082437
 O        -3.032876         0.211118         1.234376
 C        -3.212968        -0.273471        -1.299521
 C        -4.753252        -0.137866        -1.445838
 C        -4.423782         0.691216        -2.687199
 O        -3.010671         0.453223        -2.501661
 H         1.730065        -0.707699         1.589771
 H         2.115907        -0.802909        -0.133416
 H         2.172859         0.737341         0.582766
 H        -2.608785         1.595686        -0.332028
 H        -2.523529        -0.474208         1.620702
 H        -2.752069        -1.314064        -1.426622
 H        -5.382914        -0.998948        -1.697783
 H        -5.260270         0.296647        -0.535292
 H        -4.778013         0.116485        -3.650409
 H        -4.838926         1.685187        -2.598307
