19
Iteration:   315
 C         1.352990         0.091503        -0.367472
 C         0.003201        -0.057523         0.208663
 C        -1.168652         0.075521         0.546898
 C        -2.620326         0.162832         0.272333
 O        -3.258412        -0.882113         1.018573
 C        -3.055525        -0.068440        -1.196652
 C        -4.573532         0.126532        -1.637172
 C        -3.980951         0.992638        -2.675605
 O        -2.692883         0.968923        -2.125311
 H         2.136775         0.285361         0.229141
 H         1.538397        -0.759002        -1.065077
 H         1.223704         1.038767        -0.991014
 H        -3.034688         1.034912         0.770985
 H        -3.860783        -1.443934         0.469399
 H        -2.613694        -1.056627        -1.529190
 H        -5.113850        -0.724703        -2.200788
 H        -5.263407         0.550150        -0.753009
 H        -4.036618         0.497715        -3.703925
 H        -4.324876         2.065070        -2.773856
