19
Iteration:  1015
 C         1.509948         0.177368        -0.076125
 C         0.045162         0.106133         0.079830
 C        -1.176995        -0.020567         0.146454
 C        -2.619724         0.215968         0.103659
 O        -3.186750        -0.151353         1.363463
 C        -3.398478        -0.411227        -1.167099
 C        -4.724375         0.279678        -1.586648
 C        -3.839095         1.018117        -2.693827
 O        -2.725951         0.137449        -2.339496
 H         2.010050         0.539781         0.771361
 H         2.032252        -0.803715        -0.405344
 H         1.618295         0.825813        -1.035485
 H        -2.813328         1.242075        -0.271002
 H        -2.815491        -0.952300         1.663190
 H        -3.418855        -1.467377        -1.186827
 H        -5.304991        -0.538133        -1.968122
 H        -5.353562         0.862535        -0.936957
 H        -4.326942         0.757838        -3.635308
 H        -3.673423         2.114524        -2.509492
