19
Iteration:  3948
 C         1.312240        -0.573823         0.252976
 C         0.223423         0.245251        -0.215892
 C        -0.926853         0.695064        -0.268497
 C        -2.427676         0.962738        -0.308512
 O        -3.065251         1.244679         0.962949
 C        -3.200105        -0.199260        -0.807071
 C        -4.667542         0.240578        -1.267462
 C        -4.342930        -0.558363        -2.550035
 O        -2.900963        -0.710109        -2.138123
 H         1.030015        -1.661260         0.350691
 H         2.189455        -0.635837        -0.407962
 H         1.829099        -0.152487         1.216087
 H        -2.530331         1.827006        -1.050896
 H        -3.160419         2.172152         1.025703
 H        -3.164502        -0.961625        -0.029265
 H        -5.399654         0.016737        -0.474176
 H        -4.669849         1.322491        -1.482571
 H        -4.918217        -1.503215        -2.459090
 H        -4.476934         0.043935        -3.390181
