19
Iteration:  1151
 C         1.347606        -0.425711         0.008010
 C         0.037209         0.138103         0.293843
 C        -1.135708         0.524121         0.225196
 C        -2.518141         0.556481         0.113353
 O        -3.119747        -0.301764         1.165179
 C        -3.088151        -0.069203        -1.178260
 C        -4.654313        -0.094933        -1.476784
 C        -4.203359         0.510677        -2.814635
 O        -2.801371         0.699560        -2.412024
 H         1.291412        -1.530288        -0.481817
 H         1.797124         0.132734        -0.861514
 H         2.139590        -0.385496         0.748427
 H        -2.946861         1.627598         0.158548
 H        -2.391525        -0.981392         1.305145
 H        -2.612451        -0.971030        -1.468136
 H        -5.226316        -1.094578        -1.497178
 H        -5.101297         0.641145        -0.747906
 H        -4.196100        -0.230672        -3.605738
 H        -4.531327         1.530223        -3.108288
