19
Iteration:   109
 C         1.674721        -0.041877         0.454992
 C         0.160135        -0.027346         0.281095
 C        -1.025853         0.028493        -0.044560
 C        -2.499652         0.043194        -0.080787
 O        -3.051290        -0.918964         0.801810
 C        -3.174339        -0.108522        -1.478000
 C        -4.677108         0.156525        -1.343700
 C        -4.414244         1.387453        -2.280878
 O        -3.097432         0.891471        -2.525398
 H         2.274706        -0.780993        -0.260085
 H         2.198229         0.950167         0.418840
 H         1.930527        -0.501937         1.395891
 H        -2.791075         1.031868         0.324851
 H        -2.339395        -1.212020         1.402722
 H        -2.889478        -1.057195        -1.966499
 H        -5.256959        -0.648089        -1.856552
 H        -5.287581         0.268004        -0.437313
 H        -4.866349         1.487250        -3.234920
 H        -4.218051         2.396385        -1.798836
