19
Iteration:  2235charge 0 multiplicity 1
 C         1.461247        -0.144407        -0.243509
 C        -0.028742         0.040311        -0.086713
 C        -1.170623         0.286391         0.107318
 C        -2.597644         0.520566         0.237785
 O        -3.152844         0.180136         1.550806
 C        -3.316444        -0.186330        -0.993737
 C        -4.650291         0.410918        -1.570483
 C        -3.920464         0.409228        -2.905862
 O        -2.658324        -0.168255        -2.298604
 H         1.988699        -0.888225         0.367350
 H         1.794388        -0.498825        -1.263104
 H         1.862954         0.869618        -0.010923
 H        -2.948089         1.555836         0.103644
 H        -4.104605         0.436428         1.494540
 H        -3.505625        -1.265606        -0.832615
 H        -5.601537        -0.100911        -1.443202
 H        -4.861198         1.418459        -1.266224
 H        -4.111663        -0.408864        -3.733034
 H        -3.939789         1.396952        -3.437895
