19
Iteration:  3940charge 0 multiplicity 1
 C         1.350542        -0.587699         0.240642
 C         0.230049         0.284801        -0.149804
 C        -0.931219         0.601740        -0.294264
 C        -2.369293         1.009183        -0.289082
 O        -3.084264         1.299377         0.972549
 C        -3.259684        -0.236837        -0.854280
 C        -4.679161         0.217016        -1.237689
 C        -4.389291        -0.582210        -2.496604
 O        -2.871232        -0.681836        -2.195731
 H         0.952275        -1.569198         0.620108
 H         2.113948        -0.612711        -0.565353
 H         1.773541        -0.154093         1.110291
 H        -2.418191         1.929894        -0.815099
 H        -3.023191         2.245519         1.029259
 H        -3.123786        -1.129997        -0.146206
 H        -5.528541         0.014703        -0.565636
 H        -4.637272         1.313659        -1.362122
 H        -4.790611        -1.566863        -2.762130
 H        -4.537848        -0.054637        -3.476689
