19
Iteration:  4366charge 0 multiplicity 1
 C         1.580078        -0.385597         0.308415
 C         0.151984         0.085879         0.142916
 C        -1.014699         0.307936        -0.083341
 C        -2.352200         0.783727        -0.404118
 O        -2.854485         1.779981         0.482700
 C        -3.304606        -0.367495        -0.769342
 C        -4.820797        -0.069469        -1.101701
 C        -4.486458        -0.524022        -2.434112
 O        -3.052058        -0.438528        -2.262821
 H         1.531821        -1.484838         0.361903
 H         2.145550         0.058060        -0.538771
 H         2.137760        -0.126421         1.228294
 H        -2.237007         1.245701        -1.438792
 H        -2.036257         1.988509         0.967448
 H        -2.990596        -1.234138        -0.190062
 H        -5.623531        -0.669256        -0.627192
 H        -5.018903         0.986546        -0.796491
 H        -4.720801        -1.595661        -2.661024
 H        -4.817734         0.183825        -3.213874
