19
Iteration:  1245charge 0 multiplicity 1
 C         1.568795        -0.416769         0.312605
 C         0.113650        -0.033515         0.235501
 C        -1.021163         0.358941         0.008280
 C        -2.517777         0.454421        -0.076549
 O        -2.988360        -0.096459         1.230839
 C        -3.164479        -0.067710        -1.267396
 C        -4.702403        -0.177260        -1.506770
 C        -4.384863         0.526256        -2.850742
 O        -3.010991         0.893610        -2.331281
 H         2.085245        -0.352499        -0.593894
 H         2.222638         0.260736         1.023158
 H         1.753201        -1.420591         0.833957
 H        -2.806918         1.482926         0.047196
 H        -2.640311        -0.947658         1.386431
 H        -2.723992        -1.093573        -1.459763
 H        -5.059267        -1.204787        -1.495874
 H        -5.400613         0.446760        -0.973900
 H        -4.255252        -0.300426        -3.684820
 H        -4.981107         1.428763        -3.201828
