19
Iteration:   911
 C         1.424900         0.036157         0.066039
 C         0.002599         0.198491         0.157374
 C        -1.184043         0.215455        -0.170477
 C        -2.614096         0.254949         0.127617
 O        -3.008516        -0.404931         1.313780
 C        -3.441168        -0.250435        -1.063245
 C        -4.733831         0.353516        -1.624277
 C        -3.894847         0.922245        -2.744595
 O        -2.709137         0.137591        -2.291041
 H         1.703800         0.816213        -0.767479
 H         1.959591         0.170972         0.960403
 H         1.638565        -0.856409        -0.514286
 H        -3.044492         1.255924         0.312718
 H        -2.460549        -1.207921         1.479527
 H        -3.528262        -1.394374        -0.840696
 H        -5.477448        -0.354434        -2.064242
 H        -5.154831         1.044208        -0.837296
 H        -4.169230         0.752672        -3.839062
 H        -3.785962         2.028826        -2.695247
