19
Iteration:    68charge 0 multiplicity 1
 C         1.524962        -0.077261         0.436842
 C         0.124368        -0.029596         0.116715
 C        -1.074842         0.039468        -0.135512
 C        -2.557797         0.078075        -0.098692
 O        -2.827321        -0.938297         0.826851
 C        -3.221174        -0.155338        -1.435980
 C        -4.752773         0.132442        -1.464309
 C        -4.287352         1.373422        -2.253733
 O        -2.960259         0.924634        -2.273395
 H         1.951833        -1.017953         0.295838
 H         2.049736         0.548945        -0.261466
 H         1.644009         0.376415         1.420790
 H        -2.896056         1.062816         0.217547
 H        -3.612643        -0.599600         1.401982
 H        -2.891551        -1.108415        -1.849922
 H        -5.284405        -0.656512        -2.057766
 H        -5.305109         0.195409        -0.581644
 H        -4.784688         1.566657        -3.247089
 H        -4.414057         2.260186        -1.662576
