19
Iteration:  2861
 C         1.406447        -0.279363        -0.293083
 C         0.053060         0.133942         0.007676
 C        -1.162427         0.227714         0.062436
 C        -2.549973         0.763253         0.103895
 O        -3.177601         0.724503         1.346107
 C        -3.380926        -0.154394        -0.884568
 C        -4.701107         0.272646        -1.554489
 C        -3.946281        -0.005327        -2.916832
 O        -2.689142        -0.303983        -2.144521
 H         1.819052        -1.001990         0.468417
 H         1.614014        -0.792726        -1.231663
 H         2.002453         0.727754        -0.291201
 H        -2.609698         1.768474        -0.216016
 H        -2.718114         0.225639         2.089370
 H        -3.534497        -1.114296        -0.323587
 H        -5.440698        -0.407949        -1.163178
 H        -4.971132         1.289412        -1.275179
 H        -4.238342        -0.924502        -3.459923
 H        -3.773268         0.765301        -3.579540
