19
Iteration:  2113charge 0 multiplicity 1
 C         1.469058        -0.223771        -0.210060
 C         0.114561         0.190245         0.157016
 C        -1.116113         0.367102         0.109686
 C        -2.576569         0.556786         0.148370
 O        -3.323679         0.097897         1.343913
 C        -3.300362        -0.107501        -1.010159
 C        -4.573288         0.338763        -1.424169
 C        -4.034714         0.235216        -2.893194
 O        -2.687144         0.053589        -2.376457
 H         2.240738         0.527421        -0.233529
 H         1.704437        -0.990815         0.581166
 H         1.557745        -0.777721        -1.118289
 H        -2.793623         1.728404         0.331844
 H        -3.253894        -0.824599         1.212907
 H        -3.262758        -1.263882        -0.806315
 H        -5.500429        -0.147256        -1.333868
 H        -4.863627         1.331581        -1.084347
 H        -4.467336        -0.727005        -3.562047
 H        -4.067667         1.202469        -3.453461
