19
Iteration:  4807charge 0 multiplicity 1
 C         1.288308        -0.748564         0.065378
 C         0.157252         0.116952        -0.269476
 C        -0.972665         0.670127        -0.274234
 C        -2.384687         1.101573        -0.436692
 O        -3.097692         1.660865         0.768789
 C        -3.287419        -0.103743        -0.636972
 C        -4.707532         0.152335        -1.297078
 C        -4.194617        -0.675839        -2.457027
 O        -2.829094        -0.888065        -1.780685
 H         1.025717        -1.528460        -0.623947
 H         2.243516        -0.190922         0.059160
 H         1.301098        -1.055668         1.097760
 H        -2.315986         1.887443        -1.232700
 H        -2.850191         2.527777         1.018354
 H        -3.170362        -0.751593         0.272598
 H        -5.523310        -0.143667        -0.599943
 H        -4.978123         1.243146        -1.592965
 H        -4.691218        -1.652854        -2.631510
 H        -4.081381        -0.081801        -3.372850
