19
Iteration:  3512
 C         1.319535        -0.326321        -0.336658
 C        -0.023341         0.109705        -0.225127
 C        -1.155128         0.554877        -0.018957
 C        -2.578415         0.904903         0.000229
 O        -3.174368         0.995461         1.339511
 C        -3.434652        -0.158319        -0.723356
 C        -4.576969         0.351734        -1.561615
 C        -3.865537        -0.396765        -2.798945
 O        -2.686045        -0.666639        -1.953216
 H         1.628283        -0.833124         0.685050
 H         1.610181        -1.047198        -1.162613
 H         2.039840         0.484185        -0.513174
 H        -2.690863         1.819661        -0.589069
 H        -2.427725         1.338237         1.823823
 H        -3.628518        -1.053234         0.031062
 H        -5.568763        -0.077156        -1.376632
 H        -4.556475         1.445528        -1.725092
 H        -4.348660        -1.313152        -3.118835
 H        -3.611184         0.257645        -3.711311
