19
Iteration:  4447
 C         1.495753        -0.302519         0.501302
 C         0.184090         0.140753         0.058741
 C        -0.920146         0.424932        -0.407363
 C        -2.325372         0.776546        -0.634810
 O        -2.961656         1.474769         0.549918
 C        -3.237810        -0.396331        -0.779720
 C        -4.657349         0.273887        -0.991677
 C        -4.476914        -0.316488        -2.377436
 O        -3.159002        -0.838893        -2.167533
 H         2.323268        -0.660922        -0.228588
 H         2.003333         0.569138         0.920102
 H         1.318150        -1.066975         1.219724
 H        -2.546962         1.334367        -1.581758
 H        -2.452215         2.241268         1.010106
 H        -2.965860        -1.339359        -0.115509
 H        -5.354703        -0.284750        -0.358042
 H        -4.588424         1.339823        -0.802139
 H        -5.156828        -1.134615        -2.824490
 H        -4.492192         0.380995        -3.275639
