19
Iteration:  1551charge 0 multiplicity 1
 C         1.440619         0.166045        -0.366037
 C        -0.013485        -0.059003        -0.009947
 C        -1.233206        -0.114958         0.184183
 C        -2.630160         0.254342         0.191470
 O        -3.473308        -0.037335         1.389630
 C        -3.210561        -0.320772        -1.090249
 C        -4.614344         0.279474        -1.471206
 C        -3.814848         0.628504        -2.845198
 O        -2.530213         0.323076        -2.176530
 H         1.808771        -0.690196        -0.892831
 H         1.598304         1.120916        -1.001153
 H         2.114626         0.524551         0.486120
 H        -2.612790         1.236383        -0.037705
 H        -3.424326         0.773966         2.031517
 H        -2.991108        -1.423656        -1.342801
 H        -5.476085        -0.386552        -1.413592
 H        -4.945745         1.234498        -1.053527
 H        -4.118185         0.010494        -3.700962
 H        -4.077996         1.761725        -3.050401
