19
Iteration:  3016charge 0 multiplicity 1
 C         1.460933        -0.283580         0.068293
 C         0.059727         0.030333         0.073895
 C        -1.104244         0.335926         0.010353
 C        -2.467031         0.819928        -0.178094
 O        -3.176087         0.876016         1.170749
 C        -3.164899        -0.206615        -0.981126
 C        -4.630624         0.022865        -1.258031
 C        -4.233075        -0.174644        -2.721381
 O        -2.837832        -0.084465        -2.367244
 H         1.876098         0.334720        -0.824941
 H         2.153999        -0.057246         0.930781
 H         1.641983        -1.310179        -0.384888
 H        -2.574404         1.779181        -0.718400
 H        -2.692237         0.178071         1.639179
 H        -2.995891        -1.300807        -0.668492
 H        -5.469011        -0.585770        -0.911655
 H        -4.803289         1.099760        -1.094473
 H        -4.567519        -1.150652        -3.110704
 H        -4.490755         0.594869        -3.345492
