19
Iteration:  1965
 C         1.538230        -0.393603         0.350087
 C         0.183174         0.173291         0.191699
 C        -1.020317         0.379931         0.010561
 C        -2.427715         0.589962        -0.091542
 O        -3.132813         0.101340         1.063366
 C        -3.101157        -0.255544        -1.232474
 C        -4.703587        -0.041950        -1.285633
 C        -4.386958         0.564765        -2.660693
 O        -2.947148         0.258067        -2.572610
 H         1.443532        -1.208187        -0.381273
 H         2.360892         0.211554         0.101407
 H         1.738861        -0.704823         1.354213
 H        -2.619697         1.740684        -0.397122
 H        -3.178750         0.751633         1.792858
 H        -2.666171        -1.311124        -1.149617
 H        -5.258758        -1.028784        -1.408091
 H        -5.076656         0.542920        -0.403040
 H        -4.920565         0.145221        -3.642054
 H        -4.612497         1.670411        -2.586647
