19
Iteration:   708charge 0 multiplicity 1
 C         1.368770        -0.381822         0.246884
 C         0.058405         0.131167        -0.016622
 C        -1.125507         0.335281         0.038403
 C        -2.574759         0.367865         0.043048
 O        -3.058852        -0.326189         1.156898
 C        -3.068694        -0.142824        -1.309456
 C        -4.575905        -0.312532        -1.552240
 C        -4.259536         0.786496        -2.623110
 O        -2.888210         0.968861        -2.233505
 H         1.357545        -0.909607         1.167547
 H         1.522968        -1.185062        -0.548724
 H         2.181478         0.448881         0.320608
 H        -2.899871         1.418429        -0.007421
 H        -2.380546        -0.573057         1.851591
 H        -2.336585        -0.971074        -1.763612
 H        -4.747772        -1.313182        -1.979034
 H        -5.328400        -0.192584        -0.754491
 H        -4.323778         0.527776        -3.791556
 H        -4.859387         1.841700        -2.658693
