19
Iteration:  1370charge 0 multiplicity 1
 C         1.476869        -0.143245         0.418106
 C         0.119559        -0.052369         0.175584
 C        -1.046935         0.193895        -0.118959
 C        -2.494051         0.391873        -0.062272
 O        -2.955000        -0.134316         1.231908
 C        -3.248389        -0.275319        -1.239214
 C        -4.799929        -0.044867        -1.458876
 C        -4.262205         0.870817        -2.698007
 O        -2.914770         0.471315        -2.537071
 H         1.894399         0.809528         0.893370
 H         1.815768        -1.061998         0.917027
 H         1.980028        -0.205817        -0.521286
 H        -2.712136         1.442455        -0.235443
 H        -2.375586         0.298556         1.823733
 H        -2.886636        -1.341703        -1.254113
 H        -5.390919        -0.928460        -1.759390
 H        -5.258381         0.361725        -0.510384
 H        -4.690543         0.749953        -3.769786
 H        -4.489485         1.947370        -2.377098
