19
Iteration:  2256charge 0 multiplicity 1
 C         1.382822        -0.087189        -0.265153
 C         0.001574         0.007393        -0.041497
 C        -1.185521         0.247097         0.246660
 C        -2.574919         0.560231         0.137799
 O        -3.207675         0.236628         1.406354
 C        -3.234840        -0.284438        -0.985280
 C        -4.517571         0.402421        -1.425155
 C        -3.960318         0.391660        -2.865777
 O        -2.717009        -0.152231        -2.367114
 H         1.789759        -1.088598         0.097445
 H         1.730691        -0.084926        -1.404815
 H         1.986509         0.687058         0.401993
 H        -2.780671         1.617131        -0.075396
 H        -4.142697         0.289801         1.410251
 H        -3.377928        -1.349722        -0.680668
 H        -5.507220        -0.047560        -1.494586
 H        -4.695648         1.355247        -0.948643
 H        -4.595021        -0.138719        -3.653717
 H        -3.631355         1.309763        -3.352922
