19
Iteration:  3858charge 0 multiplicity 1
 C         1.530247        -0.317999         0.244388
 C         0.084605        -0.145917         0.123751
 C        -1.084293         0.211660         0.010152
 C        -2.304505         0.872152        -0.347751
 O        -2.888112         1.707041         0.776222
 C        -3.197814        -0.210323        -0.941300
 C        -4.748665        -0.098769        -1.061092
 C        -4.423873        -0.576596        -2.481312
 O        -3.047724        -0.281844        -2.479000
 H         1.658559        -0.435125         1.312194
 H         1.897736        -1.307682        -0.084911
 H         2.103268         0.613399        -0.204690
 H        -2.112782         1.671631        -1.114179
 H        -3.563934         1.139788         1.088592
 H        -2.820428        -1.164772        -0.606443
 H        -5.254993        -0.675125        -0.273329
 H        -5.017091         0.962552        -1.049876
 H        -4.455052        -1.646478        -2.624599
 H        -4.820213         0.017743        -3.245850
