19
Iteration:  1187charge 0 multiplicity 1
 C         1.295747        -0.461004         0.216281
 C        -0.028747         0.081564        -0.079865
 C        -1.120696         0.527853         0.067739
 C        -2.545341         0.560671         0.099150
 O        -3.029366        -0.286360         1.236585
 C        -3.040126        -0.039357        -1.206803
 C        -4.595390        -0.181981        -1.445394
 C        -4.180652         0.502079        -2.800730
 O        -2.859622         0.851475        -2.354266
 H         1.450946        -1.384993        -0.454801
 H         1.948157         0.341924         0.000425
 H         1.343633        -0.834700         1.301796
 H        -2.964938         1.514277         0.313740
 H        -2.416323        -1.091625         1.379004
 H        -2.438256        -0.964712        -1.248566
 H        -5.148585        -1.105278        -1.411433
 H        -5.162423         0.567748        -0.862914
 H        -4.117731        -0.402893        -3.505820
 H        -4.778108         1.226529        -3.302927
