19
Iteration:  1494charge 0 multiplicity 1
 C         1.509152         0.036271        -0.199744
 C         0.061861         0.013440         0.088919
 C        -1.143180         0.166026         0.176284
 C        -2.560213         0.423394         0.164087
 O        -3.359639        -0.153538         1.301767
 C        -3.279244        -0.259870        -1.064379
 C        -4.701520         0.237514        -1.520672
 C        -3.952207         0.775284        -2.778678
 O        -2.678515         0.138008        -2.371834
 H         2.089824        -0.750302         0.349753
 H         1.801336        -0.008011        -1.200682
 H         1.831473         0.999840         0.335724
 H        -2.725440         1.435513         0.092540
 H        -2.859186        -0.659705         1.898116
 H        -3.071563        -1.333899        -0.851309
 H        -5.233483        -0.687330        -1.759815
 H        -5.340146         0.951547        -1.032488
 H        -4.324877         0.405407        -3.769672
 H        -3.869462         1.936976        -2.793414
