19
Iteration:  1490charge 0 multiplicity 1
 C         1.520364         0.024165        -0.172385
 C         0.094810         0.018731         0.104188
 C        -1.121631         0.199721         0.138761
 C        -2.597155         0.416986         0.164759
 O        -3.366042        -0.155813         1.307281
 C        -3.281929        -0.251781        -1.096865
 C        -4.689649         0.248302        -1.513155
 C        -3.964299         0.781684        -2.779849
 O        -2.709689         0.118520        -2.368433
 H         2.032986        -0.731231         0.491078
 H         1.726243        -0.031259        -1.278081
 H         1.933225         0.917506         0.217963
 H        -2.817897         1.537978         0.234255
 H        -2.798853        -0.790232         1.881957
 H        -2.912291        -1.262936        -0.898024
 H        -5.178533        -0.688947        -1.822876
 H        -5.350219         0.894653        -0.862557
 H        -4.267454         0.429258        -3.802021
 H        -3.780448         1.815556        -2.791797
