19
Iteration:  2989charge 0 multiplicity 1
 C         1.446402        -0.383570        -0.038412
 C         0.130250         0.145693         0.117039
 C        -1.013566         0.572974         0.077461
 C        -2.421353         0.846628        -0.034167
 O        -3.190805         0.677250         1.279935
 C        -3.226734        -0.169735        -1.021839
 C        -4.720769         0.092816        -1.370544
 C        -4.268394        -0.216123        -2.795892
 O        -2.770269        -0.188333        -2.397522
 H         1.668995        -0.338278        -1.071123
 H         2.223136         0.066834         0.528787
 H         1.433129        -1.441341         0.051520
 H        -2.617133         1.878498        -0.478775
 H        -2.718241         1.327682         1.828086
 H        -3.123398        -1.180967        -0.661284
 H        -5.606368        -0.496814        -1.047291
 H        -5.026658         1.160252        -1.126172
 H        -4.610115        -1.239883        -3.117872
 H        -4.443388         0.545039        -3.691074
