19
Iteration:   504charge 0 multiplicity 1
 C         1.512634         0.157908         0.273826
 C         0.093902         0.174267        -0.061206
 C        -1.118410         0.150389         0.044523
 C        -2.640179         0.116911         0.139545
 O        -3.215383        -0.810194         0.990183
 C        -3.249188        -0.235094        -1.291421
 C        -4.685403         0.265968        -1.421995
 C        -4.089018         1.125109        -2.541536
 O        -2.728885         0.510670        -2.393484
 H         2.185073         0.186884        -0.543475
 H         1.770453         1.022338         0.862336
 H         1.730810        -0.739224         0.719539
 H        -2.876167         1.092089         0.372093
 H        -2.473670        -1.332437         1.463303
 H        -3.197283        -1.317622        -1.371825
 H        -5.553724        -0.417811        -1.566366
 H        -4.964134         1.000682        -0.619555
 H        -4.383991         0.759737        -3.509130
 H        -4.114690         2.213043        -2.536508
