19
Iteration:  4990charge 0 multiplicity 1
 C         1.432602        -0.370838         0.604091
 C         0.264139         0.173851        -0.108331
 C        -0.825074         0.538213        -0.605533
 C        -2.311020         0.942400        -0.609235
 O        -2.660776         1.430232         0.671031
 C        -3.380840        -0.074165        -0.779604
 C        -4.781658         0.292587        -1.122352
 C        -4.563995        -0.593787        -2.400430
 O        -3.190287        -1.000556        -2.005791
 H         2.203993         0.304626         0.993099
 H         0.999846        -0.997556         1.361446
 H         2.046446        -1.178858         0.069700
 H        -2.303885         1.755328        -1.332120
 H        -2.749928         2.401999         0.788988
 H        -3.428617        -0.836449         0.081825
 H        -5.598393        -0.041031        -0.506737
 H        -5.008025         1.308899        -1.457501
 H        -5.127479        -1.523595        -2.440423
 H        -4.507732        -0.205287        -3.431956
