19
Iteration:  4119
 C         1.531015        -0.462934        -0.207057
 C         0.154177         0.101227         0.074370
 C        -1.042796         0.413560         0.099081
 C        -2.425541         0.939411        -0.319188
 O        -3.175875         1.591560         0.713888
 C        -3.358080        -0.266469        -0.686075
 C        -4.637203         0.336074        -1.321702
 C        -3.994243        -0.239209        -2.629710
 O        -3.052614        -1.081305        -1.832676
 H         1.995798         0.399454        -0.726315
 H         2.208127        -0.742511         0.603562
 H         1.425437        -1.247997        -0.951795
 H        -2.506473         1.645942        -1.158229
 H        -3.535935         0.856058         1.313442
 H        -3.570576        -1.031603         0.154219
 H        -5.644078        -0.032837        -1.070097
 H        -4.574733         1.423153        -1.181221
 H        -4.601564        -0.874239        -3.274448
 H        -3.363860         0.345576        -3.381730
