19
Iteration:  3472
 C         1.191714        -0.514362        -0.302001
 C        -0.043507         0.379507        -0.306684
 C        -1.160802         0.776821        -0.031009
 C        -2.623246         0.910233        -0.026719
 O        -3.089443         0.918203         1.372683
 C        -3.377753        -0.152170        -0.702149
 C        -4.541298         0.332144        -1.649872
 C        -3.812169        -0.395650        -2.784119
 O        -2.668030        -0.707106        -1.925677
 H         1.686299        -0.300211         0.570228
 H         0.807376        -1.519459        -0.517490
 H         1.897640        -0.121365        -1.004224
 H        -2.863438         1.938215        -0.341813
 H        -2.665549         0.116222         1.825579
 H        -3.596094        -0.916711        -0.029527
 H        -5.521503         0.039487        -1.331386
 H        -4.462429         1.395013        -1.583121
 H        -4.256434        -1.452549        -2.899325
 H        -3.587532         0.175850        -3.663500
