19
Iteration:   549
 C         1.539191         0.160855         0.408266
 C         0.066436        -0.079199         0.240353
 C        -1.055111        -0.055030        -0.265212
 C        -2.545015         0.175190         0.005634
 O        -2.997884        -0.690125         1.144955
 C        -3.285808        -0.266381        -1.335310
 C        -4.793102         0.205268        -1.525324
 C        -4.271324         1.095882        -2.594654
 O        -2.816448         0.694730        -2.395034
 H         1.904681         0.994074        -0.239478
 H         1.660578         0.531980         1.368306
 H         2.124548        -0.623269         0.206476
 H        -2.676852         1.238063         0.093515
 H        -2.492719        -0.279560         1.964129
 H        -2.909465        -1.257376        -1.582101
 H        -5.537007        -0.505422        -1.939212
 H        -5.178373         0.594513        -0.581601
 H        -4.560468         0.963192        -3.615769
 H        -4.260097         2.166879        -2.357638
