19
Iteration:  1173charge 0 multiplicity 1
 C         1.342839        -0.458090         0.115116
 C        -0.039594         0.030308         0.100860
 C        -1.079468         0.654683         0.050891
 C        -2.624093         0.565895         0.156922
 O        -3.089683        -0.323713         1.213719
 C        -3.047805        -0.078610        -1.188581
 C        -4.529392        -0.065062        -1.457827
 C        -4.233109         0.433012        -2.867072
 O        -2.853882         0.790904        -2.332431
 H         1.619198        -1.482913        -0.474012
 H         2.154492         0.156523        -0.344257
 H         1.645503        -0.627204         1.154646
 H        -3.124113         1.613174         0.214027
 H        -2.361166        -0.942670         1.240044
 H        -2.588562        -1.071457        -1.381440
 H        -4.908583        -1.142379        -1.488321
 H        -5.051357         0.636207        -0.729732
 H        -4.168951        -0.245772        -3.703543
 H        -4.688370         1.427187        -2.976675
