19
Iteration:  2328charge 0 multiplicity 1
 C         1.518771        -0.151670        -0.155566
 C         0.044036        -0.015107         0.039997
 C        -1.152116         0.186420         0.251636
 C        -2.539743         0.538383         0.049567
 O        -3.164048         0.473790         1.320347
 C        -3.217219        -0.336139        -1.071147
 C        -4.690217         0.077533        -1.462779
 C        -4.071346         0.486084        -2.738124
 O        -2.781170        -0.053710        -2.408154
 H         1.929294        -0.812378        -0.940824
 H         2.058372         0.711811        -0.290365
 H         1.770315        -0.539393         0.785985
 H        -2.493712         1.666213        -0.285020
 H        -3.806880         1.201358         1.488766
 H        -2.986387        -1.360540        -0.767117
 H        -5.381710        -0.774142        -1.336256
 H        -5.186385         0.936014        -0.949179
 H        -4.370001        -0.041782        -3.743603
 H        -4.203409         1.616033        -2.981212
