19
Iteration:  1465charge 0 multiplicity 1
 C         1.517556        -0.135802        -0.027524
 C         0.045631         0.218543         0.124228
 C        -1.156672         0.369816         0.104715
 C        -2.581930         0.414578         0.093520
 O        -3.210205        -0.194540         1.280013
 C        -3.304386        -0.341454        -1.088250
 C        -4.668893         0.221541        -1.468832
 C        -4.017002         0.834569        -2.702528
 O        -2.720719         0.086055        -2.484997
 H         1.886387        -0.567242         0.867738
 H         1.735708        -0.672471        -1.051665
 H         2.079776         0.815803        -0.073315
 H        -3.026891         1.555247         0.036057
 H        -2.997350        -1.149487         1.296304
 H        -3.079509        -1.401212        -0.894755
 H        -5.347995        -0.623120        -1.648006
 H        -5.159089         1.028883        -0.886055
 H        -4.432855         0.620378        -3.662754
 H        -3.866085         1.897903        -2.593136
