19
Iteration:  4285charge 0 multiplicity 1
 C         1.351787        -0.610346         0.299834
 C         0.171713         0.251572         0.084024
 C        -0.936034         0.714604        -0.228530
 C        -2.316173         1.067845        -0.455759
 O        -2.878106         1.401583         0.745968
 C        -3.221784        -0.162535        -0.890682
 C        -4.728634         0.191751        -1.157553
 C        -4.521172        -0.706534        -2.412498
 O        -2.962042        -0.683195        -2.236786
 H         1.341153        -1.129102         1.278797
 H         1.433556        -1.442703        -0.406758
 H         2.243607         0.153603         0.266445
 H        -2.297930         1.813008        -1.284353
 H        -2.782340         0.624575         1.286070
 H        -3.175567        -0.786715        -0.037793
 H        -5.551474        -0.075561        -0.477179
 H        -4.636638         1.250434        -1.372245
 H        -4.884038        -1.705853        -2.367936
 H        -4.926840        -0.367179        -3.382471
