19
Iteration:   906
 C         1.442598         0.049886         0.035538
 C        -0.017458         0.172120         0.170553
 C        -1.196149         0.204154        -0.153016
 C        -2.606430         0.249516         0.065466
 O        -2.999559        -0.394002         1.331919
 C        -3.456238        -0.239644        -1.061092
 C        -4.770875         0.349612        -1.633800
 C        -3.887817         0.899577        -2.747992
 O        -2.667170         0.174053        -2.248502
 H         1.595466         0.739896        -0.718755
 H         2.001123         0.239289         1.012702
 H         1.751207        -0.976362        -0.353486
 H        -3.043429         1.251272         0.195499
 H        -2.447939        -1.236935         1.268246
 H        -3.497282        -1.309877        -1.085996
 H        -5.510310        -0.418614        -1.833981
 H        -5.237242         1.046359        -0.968493
 H        -4.348343         0.724165        -3.698381
 H        -3.772154         1.982319        -2.718945
