19
Iteration:  1595
 C         1.362318         0.032822        -0.443561
 C         0.028895         0.009222         0.046475
 C        -1.165860         0.152876         0.359325
 C        -2.655566         0.430295         0.296270
 O        -3.421935        -0.281222         1.327915
 C        -3.204236        -0.108162        -1.081857
 C        -4.610810         0.305163        -1.541510
 C        -3.868564         0.533554        -2.872964
 O        -2.548561         0.234951        -2.308104
 H         1.441863        -0.425457        -1.393667
 H         1.835148         1.088383        -0.419056
 H         1.979657        -0.454360         0.375052
 H        -2.886479         1.494529         0.455113
 H        -3.374671         0.339560         2.150647
 H        -3.131485        -1.193705        -0.709875
 H        -5.385776        -0.444220        -1.389750
 H        -4.966403         1.202473        -1.007947
 H        -3.989610        -0.092197        -3.807631
 H        -3.720129         1.695401        -3.175830
