19
Iteration:  2820charge 0 multiplicity 1
 C         1.440788        -0.219837        -0.312283
 C         0.025027         0.020387        -0.003299
 C        -1.115615         0.372314         0.150943
 C        -2.542607         0.626289         0.075432
 O        -3.353676         0.687664         1.296895
 C        -3.264238        -0.324962        -0.912327
 C        -4.528691         0.329389        -1.325523
 C        -3.999319         0.173754        -2.894217
 O        -2.712827        -0.432452        -2.238825
 H         2.005577        -0.109315         0.673830
 H         1.586796        -1.252752        -0.710549
 H         1.856136         0.417228        -1.017300
 H        -2.422848         1.715610        -0.408559
 H        -3.378236         1.647260         1.498085
 H        -3.317904        -1.332509        -0.477958
 H        -5.534745        -0.000711        -1.184241
 H        -4.571904         1.331699        -1.044766
 H        -4.526221        -0.636091        -3.506984
 H        -3.909759         1.153923        -3.548993
