19
Iteration:   477
 C         1.485333         0.147471         0.054135
 C         0.078123         0.305854         0.209070
 C        -1.121591         0.147969         0.073937
 C        -2.574300         0.167988         0.167791
 O        -3.291218        -0.903495         1.035816
 C        -3.217450        -0.207096        -1.241027
 C        -4.650473         0.312311        -1.481975
 C        -4.042372         1.132693        -2.584867
 O        -2.740638         0.458258        -2.366937
 H         1.837154        -0.338140        -0.920841
 H         1.973667         1.180394         0.113434
 H         1.910727        -0.595911         0.888683
 H        -2.901075         1.189084         0.639140
 H        -2.978909        -1.820710         0.739482
 H        -3.082948        -1.311541        -1.229345
 H        -5.386639        -0.412818        -1.817974
 H        -5.116662         0.958751        -0.732772
 H        -4.348946         0.722106        -3.563405
 H        -3.977379         2.209757        -2.650996
