19
Iteration:  4715
 C         1.341560        -0.562983        -0.015640
 C        -0.022669        -0.016872        -0.024467
 C        -1.113394         0.497998        -0.202586
 C        -2.445302         1.147951        -0.375652
 O        -2.768092         1.710309         0.849141
 C        -3.430170         0.051508        -0.724568
 C        -4.775740         0.162345        -1.451731
 C        -4.106310        -0.872918        -2.510004
 O        -2.856654        -0.785950        -1.781926
 H         1.424942        -1.398576         0.569749
 H         1.549090        -0.698226        -1.065105
 H         2.185378         0.130018         0.195859
 H        -2.542545         1.943311        -1.113038
 H        -2.338680         1.150058         1.550519
 H        -3.578192        -0.605349         0.131833
 H        -5.731840        -0.171902        -1.074254
 H        -5.070346         1.084395        -1.897688
 H        -4.423318        -1.946203        -2.665934
 H        -3.938948        -0.379002        -3.511020
