19
Iteration:  3020
 C         1.458141        -0.263935         0.078770
 C         0.062517         0.001817         0.043665
 C        -1.117178         0.330868         0.032215
 C        -2.439338         0.823497        -0.198932
 O        -3.150268         0.894017         1.156697
 C        -3.153774        -0.240985        -1.004851
 C        -4.687420         0.018517        -1.249034
 C        -4.253362        -0.181531        -2.718313
 O        -2.811309        -0.065889        -2.354695
 H         1.919894         0.438612        -0.723889
 H         2.131169        -0.110824         0.999149
 H         1.644217        -1.236343        -0.345837
 H        -2.547908         1.754436        -0.726296
 H        -2.900558         0.084486         1.673967
 H        -3.036682        -1.270228        -0.590813
 H        -5.491231        -0.633659        -0.935907
 H        -4.713306         1.075285        -0.980405
 H        -4.559707        -1.142143        -3.097409
 H        -4.587618         0.708587        -3.375679
