19
Iteration:  1792
 C         1.686299        -0.124400         0.208251
 C         0.199474        -0.095576         0.324910
 C        -0.963363         0.126611         0.173565
 C        -2.439019         0.360661        -0.009908
 O        -3.405090         0.010227         0.982775
 C        -3.095759        -0.184350        -1.270994
 C        -4.619237         0.082160        -1.324807
 C        -4.433865         0.608773        -2.660869
 O        -2.912030         0.451486        -2.564072
 H         2.241639         0.521203         0.912609
 H         1.869553        -1.188716         0.087467
 H         1.822310         0.432158        -0.875028
 H        -2.523189         1.432042        -0.051089
 H        -3.202617         0.417327         1.840648
 H        -2.807388        -1.234791        -1.350601
 H        -5.228994        -0.829836        -1.203576
 H        -4.836037         0.817995        -0.544833
 H        -4.617353         0.070170        -3.581032
 H        -4.756332         1.643303        -2.694622
