19
Iteration:   426
 C         1.365171         0.223438        -0.190993
 C        -0.052579         0.009467         0.177792
 C        -1.262843         0.166971         0.205694
 C        -2.724367         0.089807         0.306947
 O        -3.173469        -0.854800         1.200210
 C        -3.172764        -0.252211        -1.227351
 C        -4.592900         0.241512        -1.559148
 C        -3.932161         1.116436        -2.710952
 O        -2.588584         0.697314        -2.320451
 H         1.697971        -0.672483        -0.592713
 H         1.504216         1.030354        -0.959506
 H         1.994310         0.554314         0.640163
 H        -3.135383         0.957645         0.702304
 H        -3.149231        -1.854445         1.041681
 H        -2.903259        -1.313896        -1.302420
 H        -5.206365        -0.606585        -1.959358
 H        -5.103547         0.948103        -0.769445
 H        -4.176518         0.851017        -3.763983
 H        -3.947045         2.226084        -2.594161
