19
Iteration:  4430
 C         1.531584        -0.260582         0.460717
 C         0.138297        -0.007931         0.084703
 C        -0.916748         0.428101        -0.263756
 C        -2.281923         0.856795        -0.509281
 O        -2.916646         1.552468         0.564829
 C        -3.212412        -0.345909        -0.850340
 C        -4.641827         0.122152        -0.979306
 C        -4.582504        -0.349115        -2.477319
 O        -3.183052        -0.856572        -2.234820
 H         1.887766        -0.734906        -0.416181
 H         2.239006         0.605390         0.642366
 H         1.636299        -0.797852         1.484610
 H        -2.166657         1.643665        -1.281638
 H        -2.506449         2.494805         0.566543
 H        -3.150081        -1.071598        -0.114077
 H        -5.460848        -0.381144        -0.441968
 H        -4.698004         1.227084        -0.866271
 H        -5.180056        -1.186792        -2.797852
 H        -4.515013         0.501652        -3.128853
