19
Iteration:  3957
 C         1.337212        -0.558832         0.239471
 C         0.124127         0.192190        -0.261817
 C        -0.951541         0.797118        -0.209041
 C        -2.378005         0.969836        -0.356694
 O        -3.010128         1.182498         0.939812
 C        -3.222928        -0.166093        -0.784864
 C        -4.567012         0.276271        -1.255507
 C        -4.279200        -0.527528        -2.535474
 O        -2.978414        -0.745714        -2.077464
 H         0.991119        -1.590555         0.226499
 H         2.197579        -0.505311        -0.417455
 H         1.521985        -0.292983         1.375030
 H        -2.782124         1.687937        -1.165283
 H        -3.268875         2.068264         1.084944
 H        -3.289360        -0.873611         0.002629
 H        -5.462123        -0.182547        -0.799443
 H        -4.775643         1.322786        -1.493746
 H        -4.829384        -1.527030        -2.569290
 H        -4.317490        -0.121849        -3.547923
