19
Iteration:  2253
 C         1.392922        -0.085343        -0.260100
 C        -0.008210        -0.004953        -0.061434
 C        -1.157638         0.257412         0.229071
 C        -2.605873         0.570847         0.145438
 O        -3.202765         0.224339         1.448396
 C        -3.269012        -0.292126        -0.983925
 C        -4.533226         0.407102        -1.441400
 C        -3.946033         0.376548        -2.894235
 O        -2.705083        -0.143056        -2.386411
 H         1.759780        -1.047516         0.234898
 H         1.642612        -0.067304        -1.368524
 H         2.059913         0.672151         0.323233
 H        -2.651678         1.643116        -0.047542
 H        -4.179995         0.283557         1.441570
 H        -3.329808        -1.326226        -0.591427
 H        -5.540448        -0.105988        -1.415105
 H        -4.650470         1.420116        -0.956963
 H        -4.545978        -0.081256        -3.572413
 H        -3.598391         1.299840        -3.297355
