19
Iteration:   511
 C         1.487155         0.159640         0.273044
 C         0.086782         0.128843        -0.075610
 C        -1.134392         0.115220         0.086074
 C        -2.600676         0.151087         0.046350
 O        -3.144858        -0.794974         1.029062
 C        -3.222001        -0.305916        -1.319176
 C        -4.705618         0.300186        -1.444985
 C        -4.105711         1.126929        -2.568684
 O        -2.760184         0.538485        -2.365847
 H         2.229268         0.374538        -0.513013
 H         1.601504         0.980559         1.136337
 H         1.802377        -0.822839         0.892262
 H        -2.975425         1.182944         0.483072
 H        -2.509340        -1.174985         1.626945
 H        -3.079240        -1.400242        -1.481521
 H        -5.610904        -0.287582        -1.679737
 H        -4.953996         0.890049        -0.511225
 H        -4.567241         0.785448        -3.519212
 H        -4.212959         2.203621        -2.494782
