19
Iteration:    54
 C         1.509125        -0.065462         0.420997
 C         0.095947         0.029435        -0.007532
 C        -1.106873         0.081271        -0.258778
 C        -2.522538         0.078793        -0.032509
 O        -2.938512        -0.989313         0.933961
 C        -3.219418        -0.164121        -1.381061
 C        -4.725709         0.070206        -1.457783
 C        -4.306783         1.361622        -2.221579
 O        -2.829247         0.995836        -2.285905
 H         1.751311        -1.179624         0.681797
 H         2.178548         0.331876        -0.363660
 H         1.719013         0.446460         1.266475
 H        -2.795008         1.031075         0.378672
 H        -3.865564        -0.977737         1.007489
 H        -2.888394        -1.134369        -1.782555
 H        -5.140694        -0.551469        -2.233505
 H        -5.248533         0.229210        -0.457729
 H        -4.697440         1.313557        -3.210854
 H        -4.493765         2.434739        -1.877849
