19
Iteration:  1582charge 0 multiplicity 1
 C         1.407721         0.104726        -0.411575
 C        -0.023096        -0.033753        -0.006705
 C        -1.184281         0.061970         0.401890
 C        -2.556542         0.381177         0.267683
 O        -3.416175        -0.206924         1.287749
 C        -3.194969        -0.186418        -0.991997
 C        -4.662772         0.324583        -1.559168
 C        -3.852821         0.583397        -2.873200
 O        -2.560102         0.252496        -2.217804
 H         1.613301        -0.524294        -1.274629
 H         1.559418         1.099604        -0.665827
 H         2.229960        -0.276995         0.328949
 H        -2.595119         1.563243         0.146111
 H        -3.591747         0.398892         1.964430
 H        -3.234106        -1.303833        -1.127049
 H        -5.339789        -0.527817        -1.644730
 H        -5.194845         1.218499        -1.244690
 H        -4.134871        -0.137307        -3.714357
 H        -3.979110         1.673537        -3.258512
