19
Iteration:  2616charge 0 multiplicity 1
 C         1.594036        -0.393603         0.279315
 C         0.209983         0.140761         0.155280
 C        -0.974789         0.368560        -0.067615
 C        -2.412528         0.733278        -0.113843
 O        -3.218172         0.583712         1.018969
 C        -3.164737        -0.304353        -1.086755
 C        -4.706522         0.071050        -1.191404
 C        -4.402965         0.217484        -2.721736
 O        -2.954879        -0.058520        -2.514692
 H         1.650128        -1.446618         0.106808
 H         2.251001         0.114421        -0.391415
 H         2.104854        -0.037524         1.293183
 H        -2.639948         1.778689        -0.421319
 H        -2.605581         0.218783         1.716287
 H        -3.075659        -1.381781        -0.808262
 H        -5.493601        -0.624419        -0.779852
 H        -4.770680         1.073170        -0.627725
 H        -4.851064        -0.515497        -3.417440
 H        -4.606188         1.187395        -3.261504
