19
Iteration:  3875charge 0 multiplicity 1
 C         1.529569        -0.354843         0.247329
 C         0.060932        -0.199859         0.245434
 C        -1.006795         0.298458        -0.112766
 C        -2.355705         0.962571        -0.296127
 O        -2.881759         1.685031         0.791034
 C        -3.216928        -0.174992        -0.980940
 C        -4.676243        -0.082353        -1.125359
 C        -4.524888        -0.671741        -2.557665
 O        -2.992148        -0.278850        -2.362332
 H         2.174284        -0.649109         1.107534
 H         1.836428        -1.008526        -0.592019
 H         1.847867         0.575314        -0.062891
 H        -2.325581         1.671691        -1.143408
 H        -3.105270         1.239868         1.592940
 H        -3.081699        -1.141071        -0.409642
 H        -5.394010        -0.736043        -0.613070
 H        -5.128975         0.922007        -1.109110
 H        -4.658137        -1.787802        -2.642732
 H        -4.987554        -0.121329        -3.505199
