19
Iteration:  3224
 C         1.418309        -0.213747         0.441498
 C         0.057870         0.024313         0.064639
 C        -1.040502         0.381591        -0.278476
 C        -2.421968         0.724101        -0.333014
 O        -2.633399         0.966341         1.111978
 C        -3.228811        -0.357181        -0.941680
 C        -4.807596         0.019789        -1.257061
 C        -4.372001         0.063291        -2.716034
 O        -3.014201        -0.346672        -2.384841
 H         1.734910        -1.217767         0.472538
 H         1.987256         0.205529        -0.291884
 H         1.459588         0.256520         1.398789
 H        -2.586533         1.685056        -0.875659
 H        -3.599862         0.988973         1.285343
 H        -2.871157        -1.293127        -0.613299
 H        -5.430795        -0.869547        -1.125007
 H        -5.278814         0.892128        -0.723288
 H        -5.029613        -0.661026        -3.353263
 H        -4.361351         1.156438        -3.045533
