19
Iteration:  4508charge 0 multiplicity 1
 C         1.497213        -0.279970         0.518832
 C         0.164201         0.093425        -0.002029
 C        -0.923654         0.508141        -0.465977
 C        -2.330809         0.975300        -0.477142
 O        -2.509318         1.657293         0.745634
 C        -3.346853        -0.232798        -0.750440
 C        -4.819210         0.063928        -1.254880
 C        -4.526454        -0.414615        -2.588201
 O        -3.274092        -1.058871        -2.107313
 H         2.299227         0.254870         0.022723
 H         1.314333        -0.008120         1.584915
 H         1.858862        -1.358495         0.509276
 H        -2.547710         1.828504        -1.121547
 H        -2.428580         1.054846         1.517318
 H        -3.218863        -0.901165         0.056154
 H        -5.573994        -0.598867        -0.757542
 H        -5.342331         0.991396        -0.947393
 H        -5.162013        -1.099591        -3.133687
 H        -4.320000         0.467978        -3.195154
