19
Iteration:  1258
 C         1.544862        -0.341486         0.319359
 C         0.147470        -0.085011         0.311183
 C        -1.013368         0.205010         0.108893
 C        -2.447602         0.534469         0.004182
 O        -2.999380        -0.069616         1.156615
 C        -3.167827        -0.107351        -1.344972
 C        -4.704851        -0.144846        -1.467782
 C        -4.392597         0.526073        -2.807674
 O        -3.054238         0.849995        -2.421829
 H         1.909571        -0.091277        -0.628910
 H         1.937167         0.411550         1.104759
 H         1.745959        -1.403606         0.439370
 H        -2.693420         1.647524        -0.071048
 H        -2.444103        -0.922917         1.181082
 H        -2.642293        -1.071261        -1.675830
 H        -5.216164        -1.133120        -1.593003
 H        -5.074127         0.458749        -0.617635
 H        -4.330727        -0.122722        -3.801131
 H        -5.022543         1.478187        -3.038133
