19
Iteration:  3964charge 0 multiplicity 1
 C         1.298143        -0.540758         0.204578
 C         0.066837         0.157623        -0.239536
 C        -0.951347         0.833913        -0.194359
 C        -2.351467         1.037804        -0.386333
 O        -2.962834         1.150088         0.932664
 C        -3.269954        -0.207868        -0.784641
 C        -4.590333         0.302379        -1.285399
 C        -4.264712        -0.527562        -2.525553
 O        -2.959192        -0.796416        -2.036088
 H         1.057779        -1.605762         0.199654
 H         2.220938        -0.250282        -0.338897
 H         1.372842        -0.348840         1.214157
 H        -2.477045         1.955118        -0.954130
 H        -3.240440         2.035832         1.031963
 H        -3.283987        -1.003596         0.042927
 H        -5.484674        -0.152488        -0.848739
 H        -4.747941         1.394590        -1.271992
 H        -4.802903        -1.447131        -2.736087
 H        -4.189438        -0.137803        -3.622354
