19
Iteration:   418
 C         1.383477         0.216260        -0.205521
 C        -0.061380         0.028873         0.113776
 C        -1.280061         0.125543         0.167083
 C        -2.736013         0.116256         0.243282
 O        -3.249346        -0.881071         1.222706
 C        -3.163005        -0.143580        -1.170613
 C        -4.565382         0.208013        -1.594474
 C        -3.911975         1.080748        -2.653075
 O        -2.559974         0.689442        -2.249851
 H         1.913830        -0.770175        -0.598209
 H         1.442108         0.933608        -1.006104
 H         1.832959         0.706477         0.594473
 H        -3.209518         1.061451         0.639182
 H        -2.790865        -1.740089         0.997373
 H        -2.934657        -1.216690        -1.390870
 H        -5.197063        -0.640988        -1.836721
 H        -5.114972         0.868368        -0.954747
 H        -3.999048         0.802706        -3.713001
 H        -4.071385         2.220149        -2.556722
