19
Iteration:  3012charge 0 multiplicity 1
 C         1.480423        -0.305459         0.029172
 C         0.065394         0.057916         0.114126
 C        -1.098183         0.357374        -0.013924
 C        -2.495437         0.805615        -0.130680
 O        -3.193941         0.860240         1.172115
 C        -3.185918        -0.199942        -0.956393
 C        -4.583276         0.042288        -1.274444
 C        -4.214728        -0.176246        -2.714431
 O        -2.858381        -0.105966        -2.389806
 H         1.810615         0.194360        -0.804487
 H         2.058387        -0.029818         0.844356
 H         1.627241        -1.335097        -0.291894
 H        -2.572969         1.822609        -0.643615
 H        -2.513028         0.273640         1.653381
 H        -2.914093        -1.198102        -0.714884
 H        -5.409492        -0.551012        -0.812295
 H        -4.969047         1.099204        -1.183752
 H        -4.525763        -1.185809        -3.158604
 H        -4.469178         0.638822        -3.511708
