19
Iteration:  4299charge 0 multiplicity 1
 C         1.424995        -0.559862         0.302110
 C         0.159733         0.100207         0.113439
 C        -0.869192         0.704863        -0.202136
 C        -2.269680         1.074292        -0.512404
 O        -2.990164         1.472805         0.746451
 C        -3.143973        -0.091794        -0.912812
 C        -4.654709         0.155249        -1.161606
 C        -4.490794        -0.685106        -2.406122
 O        -3.112099        -0.709253        -2.222873
 H         1.432511        -1.168997         1.165020
 H         1.574381        -1.175436        -0.578020
 H         2.331707         0.014372         0.487694
 H        -2.440321         2.004036        -1.104685
 H        -3.246753         0.622761         1.212153
 H        -2.916572        -0.999675        -0.328347
 H        -5.253107        -0.315105        -0.376901
 H        -5.063938         1.167030        -1.292288
 H        -4.986539        -1.696392        -2.310735
 H        -4.757429        -0.256966        -3.380953
