19
Iteration:  2623charge 0 multiplicity 1
 C         1.608636        -0.399734         0.310046
 C         0.205379         0.200269         0.165812
 C        -0.999307         0.391181        -0.099127
 C        -2.439889         0.719773        -0.146570
 O        -3.211964         0.547104         1.044722
 C        -3.194885        -0.348192        -1.035400
 C        -4.679338         0.126732        -1.160110
 C        -4.396145         0.234031        -2.736852
 O        -2.934498        -0.083082        -2.536469
 H         1.691198        -1.501714        -0.019596
 H         2.138360         0.200288        -0.551858
 H         2.090171        -0.499340         1.238247
 H        -2.646148         1.789317        -0.594319
 H        -2.503869         0.560494         1.788086
 H        -2.907897        -1.385301        -0.819001
 H        -5.435892        -0.628995        -0.969801
 H        -5.020083         1.026418        -0.669141
 H        -4.816281        -0.486803        -3.421669
 H        -4.595229         1.180271        -3.166244
