19
Iteration:  2173charge 0 multiplicity 1
 C         1.359919        -0.218021        -0.174035
 C        -0.046200         0.109163        -0.108787
 C        -1.219113         0.423094        -0.029608
 C        -2.674254         0.531420         0.244335
 O        -3.082333        -0.024944         1.538890
 C        -3.355991        -0.145898        -0.991400
 C        -4.621006         0.428025        -1.559282
 C        -3.870120         0.264923        -2.970212
 O        -2.639027         0.015282        -2.240022
 H         1.991696         0.110825         0.792915
 H         1.544514        -1.322451        -0.342013
 H         1.707543         0.314168        -1.141904
 H        -2.949111         1.618513         0.210680
 H        -2.899514         0.681121         2.237912
 H        -3.563891        -1.159463        -0.543544
 H        -5.589861        -0.073820        -1.830654
 H        -4.760259         1.517664        -1.346654
 H        -4.123622        -0.606498        -3.511099
 H        -3.780977         1.109123        -3.693626
