19
Iteration:  1926
 C         1.347100        -0.397600         0.522753
 C         0.062177         0.070591         0.100107
 C        -0.963703         0.576722        -0.179723
 C        -2.432885         0.618787        -0.097127
 O        -3.032965         0.057633         1.106416
 C        -3.046676        -0.266669        -1.301774
 C        -4.614723        -0.072340        -1.253899
 C        -4.408340         0.628784        -2.587199
 O        -3.005673         0.251503        -2.621203
 H         1.540909        -1.503066         0.523262
 H         2.133278         0.058463        -0.248857
 H         1.777027         0.037255         1.565874
 H        -2.864110         1.541472        -0.115390
 H        -2.321898        -0.364381         1.578795
 H        -2.647215        -1.284201        -1.288921
 H        -5.130947        -1.030023        -1.219030
 H        -5.127293         0.498077        -0.446435
 H        -4.933675         0.255933        -3.415668
 H        -4.218819         1.712757        -2.625226
