19
Iteration:  2161charge 0 multiplicity 1
 C         1.368419        -0.240083        -0.188489
 C        -0.081441         0.098999        -0.114347
 C        -1.184362         0.491178         0.090111
 C        -2.659813         0.564824         0.239856
 O        -3.123943        -0.027479         1.491278
 C        -3.323776        -0.194971        -0.985882
 C        -4.623406         0.457351        -1.634209
 C        -3.931790         0.250219        -2.937444
 O        -2.625772        -0.002876        -2.269395
 H         1.907296         0.388545         0.644198
 H         1.595667        -1.325699        -0.106992
 H         1.869118         0.133608        -1.113084
 H        -3.022570         1.645132         0.243749
 H        -2.582919         0.442565         2.188605
 H        -3.266039        -1.314710        -0.888264
 H        -5.567371         0.005171        -1.214891
 H        -4.643926         1.511840        -1.314206
 H        -4.336312        -0.567471        -3.541744
 H        -3.814263         1.183849        -3.541427
