19
Iteration:  1038charge 0 multiplicity 1
 C         1.481238         0.191971        -0.098473
 C         0.019131        -0.066387        -0.002931
 C        -1.186524        -0.073486         0.109412
 C        -2.584869         0.203137         0.165047
 O        -3.260615        -0.040869         1.503189
 C        -3.266532        -0.350512        -1.195573
 C        -4.724964         0.162385        -1.637703
 C        -3.920514         0.946191        -2.719014
 O        -2.682608         0.282860        -2.374432
 H         1.829792         0.191313         0.917798
 H         2.158451        -0.554690        -0.699984
 H         1.616397         1.175646        -0.590728
 H        -2.545987         1.306611        -0.078111
 H        -3.016076        -1.012282         1.722946
 H        -3.028256        -1.374263        -1.249922
 H        -5.462211        -0.586930        -1.846634
 H        -5.128280         0.855632        -0.914228
 H        -4.196103         0.662094        -3.711606
 H        -4.033800         2.052514        -2.516718
