19
Iteration:  1706charge 0 multiplicity 1
 C         1.319565        -0.229764        -0.016170
 C        -0.094444         0.021428        -0.075727
 C        -1.191491         0.422320         0.082161
 C        -2.648740         0.491224         0.137393
 O        -2.988477        -0.202970         1.386237
 C        -3.270533        -0.209096        -1.086019
 C        -4.747015         0.159659        -1.596018
 C        -3.864310         0.543102        -2.912114
 O        -2.692992         0.457900        -2.226945
 H         1.765586         0.707980        -0.257619
 H         1.689374        -0.214392         1.008678
 H         1.751367        -1.002957        -0.579893
 H        -3.009691         1.528803         0.537364
 H        -2.503328        -0.990778         1.331051
 H        -3.169369        -1.306564        -0.831787
 H        -5.374557        -0.747421        -1.583071
 H        -5.195188         0.974803        -1.010350
 H        -3.952723        -0.211377        -3.707183
 H        -4.221610         1.560838        -3.319275
