19
Iteration:  3869charge 0 multiplicity 1
 C         1.543825        -0.352468         0.237356
 C         0.060012        -0.199536         0.227069
 C        -1.052247         0.254619        -0.095160
 C        -2.376851         0.932700        -0.314622
 O        -2.878416         1.710942         0.795747
 C        -3.210149        -0.187551        -0.978122
 C        -4.694213        -0.095151        -1.094266
 C        -4.483340        -0.634570        -2.554252
 O        -2.984411        -0.274484        -2.400280
 H         1.983686        -0.455508         1.234853
 H         1.919909        -1.094105        -0.496485
 H         2.092924         0.658294        -0.104701
 H        -2.152637         1.674180        -1.139772
 H        -3.361310         1.191494         1.470740
 H        -2.979925        -1.132049        -0.483443
 H        -5.297967        -0.679494        -0.368601
 H        -5.102893         0.923566        -1.111531
 H        -4.742168        -1.680613        -2.646734
 H        -5.085190        -0.215955        -3.300867
