19
Iteration:   192charge 0 multiplicity 1
 C         1.552543        -0.036775         0.292856
 C         0.109030        -0.064139         0.125917
 C        -1.095536        -0.061456         0.024013
 C        -2.561346         0.154050         0.037519
 O        -2.839117        -0.905784         0.975501
 C        -3.277507        -0.119320        -1.340173
 C        -4.698150         0.106243        -1.554625
 C        -4.349243         1.285580        -2.565947
 O        -2.912755         1.004585        -2.200639
 H         1.895341         0.670834        -0.318339
 H         1.786612         0.152373         1.309404
 H         2.029254        -1.036510         0.003715
 H        -2.771922         1.166876         0.400519
 H        -3.877571        -0.982679         1.079776
 H        -2.976037        -1.114169        -1.716441
 H        -5.036498        -0.710274        -2.145023
 H        -5.212714         0.498708        -0.590432
 H        -4.552054         0.993383        -3.656500
 H        -4.493270         2.360452        -2.468453
