19
Iteration:  4454charge 0 multiplicity 1
 C         1.492760        -0.297999         0.530197
 C         0.192262         0.186587         0.000834
 C        -0.926547         0.443398        -0.424282
 C        -2.320045         0.769700        -0.674842
 O        -2.945156         1.445851         0.537831
 C        -3.259622        -0.432331        -0.768826
 C        -4.648100         0.289504        -0.962163
 C        -4.484662        -0.325671        -2.444104
 O        -3.161729        -0.824367        -2.112506
 H         2.181652        -0.569370        -0.325006
 H         2.050395         0.368346         1.247170
 H         1.253499        -1.109701         1.228967
 H        -2.413233         1.468444        -1.538485
 H        -2.310443         1.965889         1.058048
 H        -3.159508        -1.197763        -0.028977
 H        -5.511935        -0.249245        -0.466308
 H        -4.587304         1.360057        -0.645951
 H        -5.061522        -1.235111        -2.691787
 H        -4.379530         0.419710        -3.218233
