19
Iteration:  4746
 C         1.215273        -0.570176         0.011576
 C        -0.099762         0.054889         0.002911
 C        -1.107426         0.671352        -0.396034
 C        -2.450423         1.162337        -0.322518
 O        -2.676585         1.795032         0.927945
 C        -3.369378        -0.135621        -0.688835
 C        -4.676994         0.184872        -1.410752
 C        -4.092587        -0.864263        -2.597629
 O        -2.870787        -0.893431        -1.828961
 H         1.230635        -1.712250         0.120035
 H         1.439287        -0.547206        -1.029462
 H         1.946054        -0.396942         0.821631
 H        -2.821833         1.866544        -1.045159
 H        -2.576462         1.213740         1.683290
 H        -3.276608        -0.779201         0.180587
 H        -5.580255        -0.273280        -1.047068
 H        -4.890534         1.199372        -1.696979
 H        -4.726425        -1.752480        -2.551909
 H        -4.087696        -0.496781        -3.666848
