19
Iteration:  3683charge 0 multiplicity 1
 C         1.449012        -0.255032         0.504196
 C         0.115498         0.220353         0.020585
 C        -0.974149         0.493349        -0.441806
 C        -2.385090         0.850158        -0.374972
 O        -2.746875         1.300902         1.004276
 C        -3.274992        -0.371231        -0.918549
 C        -4.708364        -0.052213        -1.099911
 C        -4.428556        -0.167066        -2.646066
 O        -3.107909        -0.633479        -2.389302
 H         2.103132        -0.376107        -0.326301
 H         1.873051         0.396798         1.234930
 H         1.461910        -1.354054         0.850819
 H        -2.693733         1.732681        -0.957387
 H        -2.391197         0.512916         1.463938
 H        -3.081116        -1.207224        -0.097583
 H        -5.414843        -0.866592        -0.882376
 H        -5.138875         0.916615        -0.737732
 H        -5.102743        -1.011548        -3.140939
 H        -4.544185         0.734159        -3.256159
