19
Iteration:  1975charge 0 multiplicity 1
 C         1.520970        -0.340893         0.286614
 C         0.224257         0.152766         0.252983
 C        -0.976690         0.313307        -0.044651
 C        -2.411123         0.542109        -0.059187
 O        -3.199198         0.142421         1.137659
 C        -3.140834        -0.250408        -1.166527
 C        -4.621512        -0.100965        -1.339988
 C        -4.408821         0.614084        -2.683337
 O        -2.955929         0.269939        -2.586816
 H         1.619012        -1.182351        -0.476913
 H         2.328674         0.348439         0.123469
 H         1.618895        -0.904215         1.178454
 H        -2.584217         1.673217        -0.183426
 H        -3.172119         0.967461         1.732108
 H        -2.702970        -1.272128        -1.137283
 H        -5.350273        -0.959812        -1.378996
 H        -5.148191         0.648012        -0.704425
 H        -4.736427        -0.020441        -3.584609
 H        -4.715207         1.705748        -2.811392
