19
Iteration:   679charge 0 multiplicity 1
 C         1.504203        -0.365842         0.286090
 C         0.110648         0.108082         0.249310
 C        -1.063686         0.405404         0.075596
 C        -2.583240         0.399996         0.084262
 O        -3.017929        -0.392276         1.207249
 C        -3.040324        -0.127762        -1.386369
 C        -4.598530        -0.269548        -1.597145
 C        -4.446918         0.919302        -2.645550
 O        -2.980470         0.819595        -2.473298
 H         1.883513        -0.511069         1.356536
 H         1.517312        -1.408582        -0.208509
 H         2.253952         0.118645        -0.243321
 H        -3.028410         1.424358         0.221798
 H        -2.489653        -1.110806         1.463982
 H        -2.394252        -0.856645        -1.768159
 H        -4.913737        -1.264929        -1.992161
 H        -5.195924        -0.008689        -0.726432
 H        -4.604570         0.804974        -3.665582
 H        -4.735230         1.915350        -2.446207
