19
Iteration:  3898charge 0 multiplicity 1
 C         1.473833        -0.416213         0.183522
 C         0.058969        -0.046115         0.227297
 C        -0.995906         0.524155        -0.024591
 C        -2.316037         0.962426        -0.403136
 O        -2.861295         1.509472         0.822744
 C        -3.275097        -0.190102        -0.924197
 C        -4.825534        -0.031929        -1.159858
 C        -4.362887        -0.656824        -2.568704
 O        -3.000179        -0.376599        -2.322791
 H         1.704160        -1.152567         0.972614
 H         1.829606        -0.896143        -0.758850
 H         2.162176         0.325324         0.369682
 H        -2.228692         1.602273        -1.321426
 H        -2.238326         1.525209         1.645699
 H        -3.200195        -1.126060        -0.303266
 H        -5.660605        -0.500269        -0.605344
 H        -5.162323         1.002167        -1.363144
 H        -4.675129        -1.720562        -2.588165
 H        -4.923870        -0.143038        -3.489024
