19
Iteration:  3400
 C         1.257120        -0.410149        -0.301868
 C        -0.108715         0.101410        -0.198229
 C        -1.203060         0.553376        -0.002176
 C        -2.607474         0.886729         0.004028
 O        -3.070685         0.997000         1.342174
 C        -3.384238        -0.155152        -0.793463
 C        -4.614225         0.236466        -1.626879
 C        -3.813856        -0.411323        -2.735519
 O        -2.630889        -0.426630        -1.940878
 H         1.859650         0.522002        -0.454517
 H         1.461572        -1.103119         0.473278
 H         1.311701        -0.955737        -1.302794
 H        -2.805178         1.856656        -0.488759
 H        -2.322487         0.811028         1.957188
 H        -3.516603        -1.104033        -0.189359
 H        -5.671310        -0.134486        -1.633974
 H        -4.539257         1.343385        -1.820293
 H        -4.265569        -1.374062        -2.856606
 H        -3.681853         0.167047        -3.702074
