19
Iteration:   624charge 0 multiplicity 1
 C         1.546737        -0.148222         0.404351
 C         0.132623         0.032209         0.210153
 C        -1.055004         0.184417         0.070742
 C        -2.464994         0.339149        -0.091664
 O        -3.234060        -0.459230         0.943403
 C        -3.040159        -0.187312        -1.387425
 C        -4.564844        -0.040253        -1.325422
 C        -4.431515         0.965487        -2.418991
 O        -2.918291         0.744259        -2.600042
 H         1.999870         0.657367         1.038994
 H         1.786974        -1.130725         1.021832
 H         2.035815        -0.078545        -0.541876
 H        -2.936187         1.398225         0.078355
 H        -2.727283        -1.235627         1.017670
 H        -2.609114        -1.150574        -1.675927
 H        -5.152374        -0.970482        -1.554247
 H        -5.001266         0.325324        -0.380000
 H        -4.892598         0.682114        -3.335987
 H        -4.635219         1.960366        -2.190296
