19
Iteration:  1041
 C         1.467459         0.178969        -0.098868
 C         0.018963        -0.077803        -0.019570
 C        -1.182212        -0.086057         0.097869
 C        -2.576887         0.238336         0.173895
 O        -3.267664        -0.048127         1.498199
 C        -3.249539        -0.337439        -1.201151
 C        -4.704780         0.148715        -1.621632
 C        -3.913328         0.930323        -2.713316
 O        -2.684329         0.299519        -2.366045
 H         1.884517         0.224818         0.997203
 H         2.117705        -0.473398        -0.751335
 H         1.586595         1.142024        -0.496603
 H        -2.642972         1.275643        -0.128184
 H        -3.091445        -0.931145         1.762704
 H        -3.009654        -1.427046        -1.277001
 H        -5.488545        -0.632159        -1.766853
 H        -5.244001         0.836509        -0.908769
 H        -4.248625         0.736098        -3.761376
 H        -4.039366         2.032602        -2.648750
