19
Iteration:  1954charge 0 multiplicity 1
 C         1.507782        -0.446610         0.387925
 C         0.149593         0.189779         0.148180
 C        -1.004657         0.460679         0.077603
 C        -2.498874         0.622598        -0.178912
 O        -3.071625         0.061267         1.000956
 C        -3.121255        -0.252433        -1.269266
 C        -4.676124        -0.067485        -1.247737
 C        -4.361033         0.585992        -2.594124
 O        -2.964774         0.256240        -2.575050
 H         1.780040        -1.429455        -0.006665
 H         2.182363         0.241208        -0.016292
 H         1.690614        -0.600600         1.425826
 H        -2.872624         1.770100        -0.305345
 H        -2.871501         0.623958         1.707567
 H        -2.867816        -1.355812        -1.163256
 H        -5.147273        -1.092929        -1.171974
 H        -5.078219         0.574602        -0.414969
 H        -4.939206         0.144847        -3.540549
 H        -4.330046         1.697032        -2.700799
