19
Iteration:  4141
 C         1.471404        -0.451475        -0.139523
 C         0.182122         0.238649        -0.036279
 C        -1.031609         0.419594         0.044484
 C        -2.361664         0.766947        -0.179767
 O        -3.138091         1.613258         0.768700
 C        -3.417545        -0.281173        -0.655191
 C        -4.615258         0.357619        -1.403855
 C        -4.101967        -0.344572        -2.687985
 O        -3.009522        -1.001511        -1.891423
 H         2.363363         0.150173        -0.398662
 H         1.590807        -1.019309         0.807916
 H         1.327691        -1.181922        -0.956627
 H        -2.441817         1.458969        -1.048474
 H        -2.889953         1.536161         1.688886
 H        -3.754928        -1.100097         0.111545
 H        -5.506528        -0.111547        -0.959481
 H        -4.678732         1.450844        -1.322882
 H        -4.638065        -1.057697        -3.320807
 H        -3.609844         0.387502        -3.403269
