19
Iteration:  3521
 C         1.385523        -0.285441        -0.340403
 C        -0.021496         0.033963        -0.179072
 C        -1.108382         0.511058         0.092146
 C        -2.579354         0.946366        -0.031161
 O        -3.101404         1.015322         1.304030
 C        -3.430568        -0.229352        -0.759634
 C        -4.657441         0.301116        -1.658004
 C        -3.910640        -0.366799        -2.760953
 O        -2.729371        -0.633516        -1.961113
 H         1.760509        -0.912811         0.565974
 H         1.407631        -0.832102        -1.282041
 H         2.087301         0.662723        -0.323081
 H        -2.655832         1.974705        -0.495503
 H        -2.616249         1.524948         1.930833
 H        -3.758708        -0.942215         0.031767
 H        -5.689995        -0.091368        -1.417318
 H        -4.690870         1.432878        -1.654995
 H        -4.350691        -1.263969        -3.045690
 H        -3.423912         0.163593        -3.604067
