19
Iteration:  1195
 C         1.247031        -0.433900         0.264714
 C         0.051858         0.085662        -0.138116
 C        -1.120939         0.456695         0.081501
 C        -2.598997         0.507698         0.124953
 O        -2.984300        -0.226176         1.216701
 C        -3.078327        -0.043877        -1.228636
 C        -4.607795        -0.171472        -1.421675
 C        -4.161462         0.465644        -2.824476
 O        -2.888209         0.888685        -2.356217
 H         1.684600        -1.292408        -0.496930
 H         2.158433         0.195507         0.169254
 H         1.144047        -0.910577         1.244260
 H        -2.959555         1.587869         0.395808
 H        -2.442749        -1.064238         1.346103
 H        -2.598865        -1.038412        -1.260654
 H        -4.966073        -1.249012        -1.512895
 H        -5.184080         0.578932        -0.772475
 H        -3.934520        -0.316055        -3.525766
 H        -4.809819         1.298876        -3.125567
