19
Iteration:   924charge 0 multiplicity 1
 C         1.443707         0.062166         0.021758
 C         0.000961         0.238151         0.083349
 C        -1.221826         0.259479        -0.083511
 C        -2.654510         0.323319         0.178380
 O        -3.057731        -0.456777         1.345144
 C        -3.376966        -0.322194        -1.115440
 C        -4.690753         0.379638        -1.571355
 C        -3.836864         0.988989        -2.729158
 O        -2.810462         0.045452        -2.392212
 H         2.082137         0.941137        -0.356778
 H         1.832912        -0.155476         1.026397
 H         1.690013        -1.005942        -0.442043
 H        -2.761826         1.425718         0.398748
 H        -2.275510        -1.036786         1.552592
 H        -3.361701        -1.461622        -1.022979
 H        -5.448975        -0.404273        -1.872796
 H        -5.309138         1.100741        -0.971395
 H        -4.182511         0.710180        -3.821257
 H        -3.436700         2.054189        -2.612123
