19
Iteration:  4084
 C         1.447480        -0.349174        -0.176057
 C        -0.057166        -0.191379        -0.028273
 C        -1.102254         0.432590         0.035003
 C        -2.401530         0.981053        -0.281119
 O        -2.971728         1.676688         0.817734
 C        -3.402277        -0.323523        -0.641116
 C        -4.666052         0.257730        -1.389514
 C        -3.932134        -0.261941        -2.679634
 O        -2.981963        -1.006145        -1.830863
 H         1.483429         0.321362        -1.113143
 H         2.012121         0.097503         0.711209
 H         1.884077        -1.260935        -0.485306
 H        -2.379656         1.667007        -1.205034
 H        -3.649492         1.085786         1.304119
 H        -3.347998        -0.911626         0.345122
 H        -5.523300        -0.397042        -1.249829
 H        -4.939375         1.282858        -1.117942
 H        -4.576043        -0.931503        -3.250465
 H        -3.427094         0.535715        -3.257668
