19
Iteration:   105charge 0 multiplicity 1
 C         1.680468        -0.050256         0.440466
 C         0.163155        -0.044727         0.289737
 C        -1.015198         0.060008        -0.054127
 C        -2.514881         0.017140        -0.075355
 O        -3.028940        -0.933614         0.819860
 C        -3.191948        -0.105973        -1.517813
 C        -4.709133         0.169489        -1.352230
 C        -4.384336         1.381012        -2.284843
 O        -3.095172         0.897828        -2.512885
 H         2.265080        -0.788385        -0.164752
 H         2.105183         0.984212         0.327794
 H         2.054840        -0.493250         1.570237
 H        -2.886600         1.021805         0.363370
 H        -2.363723        -0.978232         1.543560
 H        -2.903528        -1.041083        -2.045775
 H        -5.131094        -0.618309        -1.971383
 H        -5.344007         0.284677        -0.381344
 H        -5.026660         1.472177        -3.231170
 H        -4.220461         2.355260        -1.764884
