19
Iteration:  4477charge 0 multiplicity 1
 C         1.409021        -0.317069         0.531198
 C         0.257192         0.284321        -0.060575
 C        -0.905137         0.471244        -0.402198
 C        -2.291916         0.818105        -0.596534
 O        -2.731766         1.492483         0.629209
 C        -3.287723        -0.310526        -0.775860
 C        -4.769428         0.192107        -1.106295
 C        -4.517962        -0.344839        -2.468999
 O        -3.235038        -0.968487        -2.115626
 H         2.387666        -0.275538        -0.062410
 H         1.650047         0.266815         1.466782
 H         1.152313        -1.239637         0.980448
 H        -2.421178         1.548790        -1.434520
 H        -2.186901         1.428363         1.420897
 H        -3.160181        -1.083711        -0.026191
 H        -5.433107        -0.476784        -0.500383
 H        -4.951596         1.285559        -0.939487
 H        -5.113251        -1.120175        -2.978961
 H        -4.274096         0.526594        -3.086195
