19
Iteration:  1924
 C         1.345608        -0.408501         0.528987
 C         0.066833         0.075562         0.104910
 C        -0.961674         0.566677        -0.203925
 C        -2.442942         0.611233        -0.097854
 O        -3.028730         0.065781         1.122568
 C        -3.068708        -0.249451        -1.305355
 C        -4.599028        -0.091387        -1.240638
 C        -4.393629         0.644109        -2.581232
 O        -3.006345         0.252331        -2.630849
 H         1.558734        -1.458394         0.561134
 H         2.061870         0.034333        -0.198756
 H         1.773831         0.115885         1.524058
 H        -2.908495         1.572139        -0.078676
 H        -2.251557        -0.462512         1.531251
 H        -2.626234        -1.293078        -1.304979
 H        -5.136559        -1.050163        -1.234007
 H        -5.159936         0.527300        -0.525618
 H        -4.941094         0.217410        -3.456667
 H        -4.261707         1.696423        -2.633507
