19
Iteration:  1075
 C         1.406863         0.044514        -0.111240
 C         0.023730        -0.130515        -0.060569
 C        -1.156708         0.034847         0.194853
 C        -2.529903         0.433848         0.103751
 O        -3.360990        -0.078780         1.195878
 C        -3.131464        -0.260874        -1.143983
 C        -4.666538         0.028762        -1.456145
 C        -4.023685         0.733404        -2.664491
 O        -2.648026         0.492012        -2.263691
 H         2.003065        -0.514263         0.760263
 H         1.894942        -0.225373        -1.040395
 H         1.643976         1.014473         0.236976
 H        -2.840431         1.487442         0.086512
 H        -3.068198        -0.963428         1.500734
 H        -2.925807        -1.352444        -1.309540
 H        -5.326184        -0.876619        -1.619024
 H        -5.125236         0.872546        -0.877586
 H        -4.100098         0.256534        -3.675569
 H        -4.172839         1.839492        -2.786024
