19
Iteration:  3077
 C         1.646393        -0.215356         0.285093
 C         0.203991         0.090358         0.133928
 C        -1.005465         0.194674        -0.041983
 C        -2.399299         0.706047        -0.159097
 O        -3.005486         1.065244         1.060972
 C        -3.259382        -0.269486        -1.026278
 C        -4.758983        -0.125655        -1.253398
 C        -4.392110        -0.021054        -2.717441
 O        -3.028757        -0.139752        -2.487749
 H         2.110796         0.660296         0.736420
 H         1.818678        -1.106153         0.917071
 H         2.108578        -0.446311        -0.705608
 H        -2.404892         1.649617        -0.762216
 H        -3.460055         0.291822         1.486140
 H        -3.001321        -1.263923        -0.633515
 H        -5.388593        -1.018438        -1.003911
 H        -5.272742         0.676349        -0.719813
 H        -4.838312        -0.793584        -3.375923
 H        -4.633231         1.006909        -3.237988
