19
Iteration:  3645charge 0 multiplicity 1
 C         1.594097        -0.211062         0.209449
 C         0.209267         0.139756         0.158358
 C        -0.943160         0.493881        -0.108101
 C        -2.340011         0.902296        -0.388903
 O        -2.982372         1.168568         0.905505
 C        -3.352751        -0.274913        -0.841938
 C        -4.771705         0.118510        -1.214018
 C        -4.357867        -0.181819        -2.660996
 O        -3.093503        -0.757513        -2.258855
 H         1.867089        -0.774349        -0.796643
 H         2.346874         0.685869         0.278424
 H         1.667820        -0.834301         1.065217
 H        -2.292008         1.829361        -0.995930
 H        -3.044497         0.391906         1.429712
 H        -3.157929        -1.170029        -0.331879
 H        -5.463021        -0.660342        -0.850124
 H        -5.233312         1.042816        -0.920086
 H        -4.887648        -0.846226        -3.234825
 H        -4.136098         0.684878        -3.310680
