19
Iteration:  4588
 C         1.578089        -0.393960         0.178836
 C         0.177378         0.022950        -0.079855
 C        -0.970433         0.463846         0.029325
 C        -2.385825         0.853649        -0.424979
 O        -2.934362         1.688868         0.730505
 C        -3.403023        -0.198052        -0.723949
 C        -4.714590         0.272800        -1.345845
 C        -4.382513        -0.614016        -2.562140
 O        -3.079527        -0.882041        -2.008713
 H         2.267674         0.342239         0.731718
 H         1.693628        -1.321445         0.726593
 H         1.867483        -0.521112        -0.823254
 H        -2.407209         1.591904        -1.211195
 H        -2.126234         2.121181         1.098176
 H        -3.486074        -0.942934        -0.005798
 H        -5.457621        -0.066488        -0.639881
 H        -4.631407         1.311116        -1.559305
 H        -5.019380        -1.501778        -2.709878
 H        -4.363724        -0.040750        -3.484189
