19
Iteration:  3378
 C         1.396178        -0.375982        -0.292353
 C        -0.027200         0.033175        -0.265651
 C        -1.179771         0.407314        -0.013137
 C        -2.582413         0.811727         0.045930
 O        -3.278106         1.091702         1.383195
 C        -3.374938        -0.190155        -0.771677
 C        -4.594032         0.262294        -1.484445
 C        -3.877567        -0.391112        -2.812069
 O        -2.596413        -0.407896        -2.085302
 H         1.966692         0.476917        -0.738727
 H         1.611565        -0.662267         0.699789
 H         1.543646        -1.240672        -0.987898
 H        -2.715620         1.748246        -0.475449
 H        -2.755135         1.617366         1.995556
 H        -3.570062        -1.064426        -0.148912
 H        -5.636963        -0.007934        -1.159038
 H        -4.500081         1.368403        -1.668404
 H        -4.286612        -1.365233        -2.880690
 H        -3.878317         0.266349        -3.736127
