19
Iteration:     3charge 0 multiplicity 1
 C         1.519129        -0.040608         0.094598
 C         0.083270         0.008265         0.079935
 C        -1.116983         0.040188         0.101849
 C        -2.590784         0.024617         0.082358
 O        -3.124029        -1.008212         0.890027
 C        -3.140807        -0.100259        -1.345956
 C        -4.668666         0.122406        -1.500964
 C        -4.252327         1.303195        -2.394795
 O        -2.827192         1.077051        -2.156557
 H         1.818796        -0.438527         1.034352
 H         1.976771        -0.573199        -0.743922
 H         1.986692         1.059319         0.068000
 H        -3.032528         0.981078         0.491084
 H        -2.597112        -1.841409         0.662011
 H        -2.769032        -1.019260        -1.832755
 H        -5.165729        -0.684321        -2.075311
 H        -5.121289         0.334404        -0.582404
 H        -4.477368         1.230270        -3.491360
 H        -4.487371         2.310647        -2.135835
