19
Iteration:    63
 C         1.492617        -0.082461         0.458226
 C         0.121558         0.003129         0.052349
 C        -1.065598         0.049176        -0.186288
 C        -2.578087         0.078359        -0.110211
 O        -2.868128        -0.958033         0.873078
 C        -3.226424        -0.116742        -1.407531
 C        -4.725783         0.130946        -1.468812
 C        -4.291104         1.329307        -2.211043
 O        -2.909528         0.950871        -2.280712
 H         2.031324        -1.122699         0.380305
 H         1.995031         0.470995        -0.399281
 H         1.801552         0.452017         1.407787
 H        -2.885881         1.078185         0.291417
 H        -3.690491        -0.782516         1.268419
 H        -2.919677        -1.096507        -1.831822
 H        -5.269275        -0.547831        -2.109246
 H        -5.430529         0.049215        -0.541099
 H        -4.641710         1.297050        -3.235928
 H        -4.354619         2.363369        -1.712061
