19
Iteration:  1526
 C         1.388512         0.147449        -0.307114
 C        -0.049062        -0.018575        -0.009760
 C        -1.235387        -0.095700         0.228420
 C        -2.572726         0.311242         0.148192
 O        -3.384859        -0.033407         1.373994
 C        -3.181949        -0.382802        -1.103708
 C        -4.618748         0.247416        -1.469256
 C        -3.860816         0.737462        -2.824947
 O        -2.592876         0.292633        -2.258142
 H         1.965381        -0.818638        -0.230576
 H         1.719988         0.672077        -1.118845
 H         1.685855         0.817014         0.570575
 H        -2.617090         1.326424        -0.124427
 H        -2.884340         0.315942         2.182859
 H        -3.164234        -1.523594        -1.218475
 H        -5.435095        -0.476756        -1.588755
 H        -5.039947         1.038936        -0.863953
 H        -4.216424         0.075980        -3.679441
 H        -3.902189         1.810746        -3.180598
