19
Iteration:  1507charge 0 multiplicity 1
 C         1.443589         0.098974        -0.175849
 C         0.019113        -0.026792        -0.029634
 C        -1.159642         0.033409         0.301623
 C        -2.606958         0.350960         0.161617
 O        -3.327877        -0.080819         1.253705
 C        -3.254031        -0.250980        -1.043953
 C        -4.659805         0.201543        -1.573476
 C        -3.928303         0.721434        -2.749396
 O        -2.646478         0.207056        -2.327430
 H         1.929092        -0.811504         0.087541
 H         1.522334         0.364265        -1.288554
 H         1.981611         1.017032         0.273092
 H        -2.622904         1.487064         0.145553
 H        -2.554784        -0.237612         1.919530
 H        -3.430970        -1.343133        -0.982205
 H        -5.481687        -0.506538        -1.687262
 H        -5.004843         0.977643        -0.893573
 H        -4.191366         0.340255        -3.731050
 H        -3.899256         1.892251        -2.815517
