19
Iteration:  1736
 C         1.508222        -0.193013         0.056123
 C         0.050450         0.052086         0.066628
 C        -1.129868         0.234302        -0.043607
 C        -2.627415         0.438702         0.108110
 O        -3.236635        -0.146326         1.344436
 C        -3.199692        -0.210169        -1.146768
 C        -4.659686         0.133101        -1.478503
 C        -4.080144         0.560586        -2.858830
 O        -2.740561         0.521605        -2.352963
 H         2.013923         0.808640         0.243729
 H         1.736154        -0.782569         0.918866
 H         1.836988        -0.754178        -0.983892
 H        -2.865715         1.572400         0.201989
 H        -2.533887        -0.440259         2.033136
 H        -2.942606        -1.287513        -1.135055
 H        -5.380632        -0.680520        -1.418339
 H        -5.083646         0.823947        -0.726295
 H        -4.168448        -0.191612        -3.662863
 H        -4.413971         1.504249        -3.241053
