19
Iteration:   576
 C         1.587061         0.099528         0.450376
 C         0.161364        -0.025984         0.197272
 C        -1.018245        -0.079330        -0.065494
 C        -2.470031         0.135968        -0.060778
 O        -3.048311        -0.544134         0.971336
 C        -3.299127        -0.197302        -1.338969
 C        -4.804131         0.121958        -1.505301
 C        -4.381552         1.059101        -2.574800
 O        -2.879588         0.699668        -2.348662
 H         2.086200         1.072627         0.336209
 H         1.688463        -0.100628         1.603873
 H         2.290446        -0.619640        -0.208450
 H        -2.420003         1.337999        -0.064451
 H        -2.483921        -0.337968         1.817856
 H        -3.013568        -1.226971        -1.674121
 H        -5.335804        -0.711021        -1.946514
 H        -5.375068         0.329182        -0.585833
 H        -4.603341         0.987027        -3.691725
 H        -4.386718         2.158164        -2.258864
