19
Iteration:  3958
 C         1.336591        -0.555721         0.234325
 C         0.116796         0.185459        -0.261904
 C        -0.957022         0.806510        -0.204937
 C        -2.369795         0.977499        -0.361140
 O        -3.003046         1.175019         0.937446
 C        -3.231591        -0.170599        -0.784254
 C        -4.561987         0.279711        -1.256529
 C        -4.275338        -0.524403        -2.532773
 O        -2.980919        -0.750876        -2.071651
 H         0.979322        -1.607344         0.229120
 H         2.203607        -0.468864        -0.418170
 H         1.492602        -0.303972         1.383588
 H        -2.763272         1.718655        -1.152143
 H        -3.279017         2.088086         1.084979
 H        -3.296457        -0.883875        -0.001128
 H        -5.463357        -0.186704        -0.832104
 H        -4.782328         1.332145        -1.468885
 H        -4.818461        -1.525956        -2.610270
 H        -4.300052        -0.161006        -3.534583
