19
Iteration:    51charge 0 multiplicity 1
 C         1.509556        -0.069053         0.386984
 C         0.084334         0.035752        -0.018309
 C        -1.110261         0.090165        -0.270242
 C        -2.507369         0.066154         0.001456
 O        -2.954180        -0.995832         0.950114
 C        -3.205176        -0.186005        -1.375814
 C        -4.716893         0.060443        -1.461110
 C        -4.304258         1.382677        -2.244878
 O        -2.820072         1.003966        -2.276897
 H         1.643760        -1.170976         0.722833
 H         2.302812         0.261304        -0.357546
 H         1.650869         0.578952         1.389129
 H        -2.796144         1.082096         0.418268
 H        -3.947317        -1.009735         0.870111
 H        -2.844732        -1.161801        -1.774770
 H        -5.160508        -0.623043        -2.180066
 H        -5.215147         0.274161        -0.436364
 H        -4.771973         1.395784        -3.257943
 H        -4.551075         2.429785        -1.864423
