19
Iteration:   353
 C         1.353231         0.165978        -0.354345
 C        -0.065556         0.116452         0.069029
 C        -1.261604        -0.014325         0.201902
 C        -2.733248        -0.034841         0.281167
 O        -3.309660        -0.923414         1.245829
 C        -3.085450        -0.145868        -1.198201
 C        -4.519740         0.137710        -1.647551
 C        -3.860176         1.046669        -2.668982
 O        -2.596942         0.974309        -2.057653
 H         2.107228        -0.498353         0.301499
 H         1.504176        -0.124171        -1.389856
 H         1.678939         1.180845        -0.429370
 H        -2.909965         1.109048         0.415425
 H        -4.206151        -0.411473         1.420209
 H        -2.555042        -1.057017        -1.507380
 H        -5.003651        -0.699736        -2.048000
 H        -4.983746         0.664399        -0.914268
 H        -3.809904         0.490719        -3.605646
 H        -4.334250         2.014677        -2.894782
