19
Iteration:    66
 C         1.510439        -0.075205         0.455968
 C         0.127006        -0.015189         0.090114
 C        -1.070707         0.042217        -0.156384
 C        -2.572002         0.079807        -0.105152
 O        -2.839972        -0.946640         0.843512
 C        -3.222523        -0.134368        -1.425331
 C        -4.740275         0.135536        -1.466188
 C        -4.286044         1.350436        -2.236947
 O        -2.941380         0.933931        -2.274415
 H         2.004349        -1.077024         0.314705
 H         2.016202         0.509208        -0.320346
 H         1.687362         0.369759         1.319103
 H        -2.887797         1.042597         0.232314
 H        -3.682352        -0.658102         1.372797
 H        -2.904911        -1.096122        -1.840577
 H        -5.286127        -0.611821        -2.065611
 H        -5.370796         0.112532        -0.576527
 H        -4.718360         1.447104        -3.226975
 H        -4.386173         2.312266        -1.671231
