19
Iteration:  1822
 C         1.571760        -0.113098         0.388640
 C         0.111319        -0.127032         0.211822
 C        -1.051985         0.069090         0.112839
 C        -2.424919         0.449647        -0.128440
 O        -3.172366         0.104694         1.028556
 C        -3.108716        -0.219945        -1.310103
 C        -4.644193        -0.012173        -1.316504
 C        -4.433205         0.638476        -2.609819
 O        -2.959145         0.459799        -2.565509
 H         2.075316        -0.056314         1.382017
 H         2.003568        -0.952838        -0.117549
 H         1.895293         0.735733        -0.297737
 H        -2.516095         1.553421        -0.257871
 H        -2.512476         0.067286         1.710811
 H        -2.645005        -1.243576        -1.398969
 H        -5.230821        -0.921320        -1.394895
 H        -4.844360         0.568536        -0.398658
 H        -4.680678         0.106283        -3.579632
 H        -4.782162         1.651696        -2.718643
