19
Iteration:  2928charge 0 multiplicity 1
 C         1.317461        -0.395755        -0.101424
 C        -0.029309         0.167581        -0.128018
 C        -1.185616         0.547958        -0.147720
 C        -2.599379         0.853926         0.082384
 O        -3.012812         0.600201         1.391033
 C        -3.296532        -0.190751        -0.914217
 C        -4.600190         0.284160        -1.404090
 C        -4.066037        -0.195193        -2.859229
 O        -2.620836        -0.215267        -2.205186
 H         1.402350        -1.435515        -0.602726
 H         2.097763         0.248499        -0.586579
 H         1.536411        -0.350195         1.034518
 H        -2.789189         1.853730        -0.212097
 H        -3.917361         0.353478         1.334951
 H        -3.218373        -1.223393        -0.472419
 H        -5.464887        -0.274388        -1.073071
 H        -4.650045         1.341165        -1.407374
 H        -4.415516        -1.191003        -3.125653
 H        -4.005606         0.425673        -3.653810
