19
Iteration:  1193charge 0 multiplicity 1
 C         1.248094        -0.445602         0.256128
 C         0.032060         0.083812        -0.123861
 C        -1.112970         0.473214         0.079891
 C        -2.590616         0.518675         0.113248
 O        -2.990277        -0.246190         1.221238
 C        -3.063450        -0.041412        -1.230326
 C        -4.613367        -0.180088        -1.419856
 C        -4.155563         0.482245        -2.818547
 O        -2.882278         0.879198        -2.360897
 H         1.611896        -1.254335        -0.436826
 H         2.133213         0.269760         0.066858
 H         1.179772        -0.895880         1.205870
 H        -2.957174         1.587121         0.411820
 H        -2.492725        -1.020106         1.372529
 H        -2.541735        -1.029643        -1.180279
 H        -5.021119        -1.241049        -1.495756
 H        -5.156287         0.589444        -0.830508
 H        -3.959319        -0.346513        -3.453641
 H        -4.857113         1.309256        -3.177744
