19
Iteration:  2561
 C         1.581517        -0.192312         0.316865
 C         0.127396        -0.174598         0.179141
 C        -1.021361         0.126429        -0.094636
 C        -2.362963         0.630953        -0.121361
 O        -3.024376         0.773776         1.280719
 C        -3.140479        -0.205673        -1.099210
 C        -4.710735         0.013545        -1.313518
 C        -4.426820         0.019382        -2.833466
 O        -3.020031         0.251564        -2.537516
 H         1.947458        -0.889212         1.030929
 H         1.952046        -0.630471        -0.576518
 H         2.034260         0.853068         0.327768
 H        -2.412091         1.599301        -0.583112
 H        -3.496125        -0.121763         1.484003
 H        -3.055548        -1.302146        -0.941932
 H        -5.279778        -0.833235        -0.834293
 H        -5.187275         0.995927        -0.955101
 H        -4.556859        -0.898478        -3.473952
 H        -4.881833         0.988386        -3.246888
