19
Iteration:  3649
 C         1.572584        -0.227469         0.235703
 C         0.189349         0.140452         0.160699
 C        -0.929820         0.544714        -0.124667
 C        -2.299462         0.890410        -0.408428
 O        -2.923066         1.185730         0.919282
 C        -3.376754        -0.281529        -0.863378
 C        -4.790620         0.081119        -1.188059
 C        -4.368081        -0.173542        -2.645482
 O        -3.108709        -0.752428        -2.288212
 H         1.774294        -0.567702        -0.757454
 H         2.246148         0.629151         0.374768
 H         1.692068        -0.866173         1.164779
 H        -2.329230         1.858321        -0.936156
 H        -3.028426         0.262403         1.348665
 H        -3.141576        -1.293138        -0.214063
 H        -5.495168        -0.714054        -0.932046
 H        -5.241860         1.098332        -1.044382
 H        -4.876745        -0.992499        -3.347312
 H        -4.147597         0.730706        -3.225702
