19
Iteration:  4628charge 0 multiplicity 1
 C         1.497955        -0.506187        -0.041369
 C         0.221515         0.155449         0.267074
 C        -0.961294         0.456997        -0.059440
 C        -2.317225         1.001396        -0.436204
 O        -3.086638         1.538122         0.768207
 C        -3.318458        -0.073302        -0.836382
 C        -4.606627         0.362576        -1.369148
 C        -4.380193        -0.695771        -2.517330
 O        -3.077290        -0.975668        -1.908176
 H         2.371281        -0.348970         0.596166
 H         1.304110        -1.620432        -0.223074
 H         1.850735         0.137558        -0.929732
 H        -2.103645         1.741596        -1.254389
 H        -2.586019         2.340779         0.944380
 H        -3.465945        -0.539132         0.241359
 H        -5.571174         0.158208        -0.829138
 H        -4.676858         1.431246        -1.692588
 H        -4.957183        -1.627889        -2.596542
 H        -4.265760        -0.324634        -3.562877
