19
Iteration:    37charge 0 multiplicity 1
 C         1.445234        -0.080010         0.331015
 C         0.134622         0.080050        -0.127374
 C        -1.084758         0.086162        -0.168194
 C        -2.552515         0.001444         0.048083
 O        -3.015809        -0.987600         0.973484
 C        -3.112941        -0.151507        -1.352004
 C        -4.629254         0.109652        -1.522597
 C        -4.279032         1.359079        -2.322934
 O        -2.912413         0.990736        -2.189603
 H         1.549228        -0.984054         0.864691
 H         2.244914        -0.080813        -0.424482
 H         1.669382         0.841600         1.168200
 H        -2.929577         1.014411         0.439667
 H        -3.810346        -1.329712         0.567067
 H        -2.683943        -1.052655        -1.825016
 H        -5.322952        -0.715112        -1.800306
 H        -5.079992         0.389176        -0.587627
 H        -4.534378         1.603281        -3.416522
 H        -4.390462         2.154970        -1.639021
