19
Iteration:   309
 C         1.334154         0.080535        -0.363998
 C         0.028702        -0.057276         0.208954
 C        -1.134398         0.122252         0.503827
 C        -2.631961         0.151273         0.302792
 O        -3.309390        -0.911653         1.010084
 C        -3.009210        -0.025469        -1.180785
 C        -4.561566         0.110652        -1.584979
 C        -4.029788         0.991591        -2.715768
 O        -2.681512         0.965465        -2.124392
 H         2.256405         0.331531         0.407053
 H         1.666343        -0.790604        -0.951716
 H         1.285842         0.846714        -1.116666
 H        -3.189671         1.104524         0.606184
 H        -3.802522        -1.560841         0.371056
 H        -2.821358        -1.025122        -1.593660
 H        -4.876256        -0.798433        -2.017345
 H        -5.167334         0.634367        -0.968498
 H        -4.192568         0.637278        -3.713260
 H        -4.340715         2.030371        -2.677316
