19
Iteration:   773
 C         1.473181        -0.239100        -0.035483
 C         0.079396         0.016773         0.220957
 C        -1.123235         0.148523         0.360664
 C        -2.537062         0.426358         0.188996
 O        -3.201967        -0.427589         1.110447
 C        -2.987100        -0.036834        -1.232590
 C        -4.592658        -0.067635        -1.465575
 C        -4.237272         0.633024        -2.856129
 O        -2.901105         0.902659        -2.401713
 H         1.737595        -1.242612        -0.172546
 H         1.741344         0.228802        -0.993571
 H         2.384973         0.100120         0.624522
 H        -2.894902         1.480480         0.350464
 H        -3.163727        -0.005775         2.025680
 H        -2.613775        -1.101561        -1.544987
 H        -5.132644        -1.042256        -1.490799
 H        -5.112674         0.605635        -0.764065
 H        -4.258450         0.152381        -3.890316
 H        -5.034207         1.415852        -3.118296
