19
Iteration:  4644charge 0 multiplicity 1
 C         1.405949        -0.451294        -0.068661
 C         0.110485         0.097945         0.108963
 C        -1.036768         0.526620        -0.042319
 C        -2.342964         0.954800        -0.335984
 O        -3.028515         1.545325         0.724335
 C        -3.314469        -0.172511        -0.751404
 C        -4.616616         0.436793        -1.424927
 C        -4.299967        -0.693135        -2.450073
 O        -2.951689        -0.986691        -1.924909
 H         1.921445        -0.484988         0.965674
 H         1.291459        -1.417906        -0.518313
 H         2.075962        -0.107207        -0.818530
 H        -2.277181         1.672509        -1.182949
 H        -2.512117         2.329497         1.078330
 H        -3.463694        -0.764408         0.123776
 H        -5.435343         0.543873        -0.728200
 H        -4.590249         1.490360        -1.778294
 H        -5.009199        -1.524862        -2.358436
 H        -4.276926        -0.304794        -3.465814
