19
Iteration:  1548charge 0 multiplicity 1
 C         1.427260         0.176319        -0.332777
 C        -0.009536        -0.050753        -0.022043
 C        -1.222869        -0.114259         0.160288
 C        -2.649562         0.204064         0.206063
 O        -3.466253        -0.013750         1.395450
 C        -3.244416        -0.317986        -1.101852
 C        -4.577640         0.280190        -1.477277
 C        -3.827418         0.630715        -2.814731
 O        -2.519470         0.329847        -2.205849
 H         1.796792        -0.710312        -0.929775
 H         1.519365         0.901630        -1.042885
 H         2.090372         0.588097         0.510623
 H        -2.647134         1.376302        -0.016250
 H        -3.349392         0.702921         2.002761
 H        -2.896868        -1.395115        -1.256962
 H        -5.440796        -0.391420        -1.470502
 H        -4.896119         1.195921        -0.994054
 H        -4.155422        -0.005908        -3.704379
 H        -4.091879         1.720099        -2.994708
