19
Iteration:  2174charge 0 multiplicity 1
 C         1.359347        -0.215140        -0.171455
 C        -0.056455         0.111566        -0.100434
 C        -1.213713         0.408817        -0.041688
 C        -2.670021         0.537619         0.240776
 O        -3.077890        -0.024723         1.541629
 C        -3.362411        -0.144185        -0.977604
 C        -4.622978         0.427086        -1.563213
 C        -3.859759         0.270274        -2.974204
 O        -2.640438         0.015097        -2.236460
 H         1.988187         0.122747         0.801630
 H         1.505544        -1.317169        -0.414829
 H         1.768407         0.318386        -1.167133
 H        -2.946667         1.583411         0.194538
 H        -2.937263         0.680478         2.197951
 H        -3.599453        -1.155765        -0.559519
 H        -5.586957        -0.100110        -1.827342
 H        -4.789731         1.521668        -1.340100
 H        -4.082245        -0.595223        -3.469079
 H        -3.800649         1.090492        -3.698005
