19
Iteration:  2811
 C         1.457336        -0.183227        -0.290110
 C         0.070489        -0.006946        -0.011867
 C        -1.102152         0.320588         0.139172
 C        -2.509571         0.647736         0.024417
 O        -3.396783         0.687686         1.312935
 C        -3.211243        -0.301293        -0.890759
 C        -4.540521         0.345442        -1.405852
 C        -4.010014         0.183157        -2.775245
 O        -2.754588        -0.438936        -2.286116
 H         2.165656        -0.114931         0.529928
 H         1.536711        -1.305212        -0.382332
 H         1.746929         0.266544        -1.161569
 H        -2.663710         1.699179        -0.277763
 H        -3.702063         1.625105         1.285468
 H        -3.229162        -1.219517        -0.311976
 H        -5.383428        -0.334790        -1.153709
 H        -4.691192         1.408750        -1.147009
 H        -4.626397        -0.490368        -3.400899
 H        -3.675375         1.167033        -3.342947
