19
Iteration:  3370
 C         1.375906        -0.359481        -0.285351
 C        -0.006376         0.031195        -0.248939
 C        -1.131463         0.348367         0.011760
 C        -2.516381         0.836173         0.084440
 O        -3.323138         1.079577         1.353130
 C        -3.327921        -0.176288        -0.810486
 C        -4.605967         0.246473        -1.518530
 C        -3.943426        -0.335778        -2.710520
 O        -2.635812        -0.430920        -2.101943
 H         1.938864         0.497726        -0.773370
 H         1.909081        -0.519009         0.706402
 H         1.455274        -1.218972        -0.810541
 H        -2.487209         1.791282        -0.442510
 H        -2.840057         1.797327         1.736104
 H        -3.366927        -1.119035        -0.360737
 H        -5.637840        -0.108316        -1.306093
 H        -4.564804         1.367602        -1.592166
 H        -4.345056        -1.366373        -3.162756
 H        -3.944316         0.174445        -3.732437
