19
Iteration:  4598
 C         1.565870        -0.447279         0.086986
 C         0.225273         0.068205         0.068182
 C        -0.935191         0.536598         0.038881
 C        -2.306073         0.901798        -0.368068
 O        -2.977615         1.633953         0.735008
 C        -3.401489        -0.185673        -0.835226
 C        -4.767842         0.303207        -1.334800
 C        -4.404997        -0.654322        -2.579466
 O        -3.090069        -0.925720        -1.977368
 H         2.158935         0.324323         0.688785
 H         1.681287        -1.474779         0.393917
 H         2.059106        -0.508296        -0.868487
 H        -2.060150         1.502307        -1.259489
 H        -2.212214         2.241827         1.018000
 H        -3.548810        -0.673915         0.082034
 H        -5.722040         0.088723        -0.821427
 H        -4.884005         1.355387        -1.525407
 H        -4.913451        -1.601255        -2.736459
 H        -4.278836        -0.091501        -3.478222
