19
Iteration:  1052charge 0 multiplicity 1
 C         1.414796         0.160012        -0.061464
 C         0.034681        -0.139706        -0.089376
 C        -1.166157        -0.107146         0.085129
 C        -2.621204         0.318872         0.160667
 O        -3.286367        -0.025293         1.388611
 C        -3.212337        -0.313910        -1.159472
 C        -4.621059         0.112311        -1.505168
 C        -3.992129         0.856600        -2.748438
 O        -2.656855         0.392710        -2.323908
 H         2.053667         0.014120         0.924177
 H         1.916904        -0.401007        -0.897245
 H         1.472518         1.188347        -0.253295
 H        -2.888849         1.369981         0.285532
 H        -3.100107        -0.914943         1.665780
 H        -3.114319        -1.422509        -1.219733
 H        -5.128699        -0.780222        -1.951279
 H        -5.229523         0.695322        -0.772864
 H        -4.224682         0.533971        -3.786972
 H        -3.796832         1.946232        -2.672773
