19
Iteration:  2193charge 0 multiplicity 1
 C         1.374116        -0.195444        -0.241395
 C        -0.031139         0.170317        -0.042463
 C        -1.223686         0.257927        -0.054396
 C        -2.676639         0.533262         0.186784
 O        -3.003820         0.023311         1.450350
 C        -3.454431        -0.136055        -0.954025
 C        -4.714883         0.435563        -1.682589
 C        -3.839049         0.254412        -2.885905
 O        -2.600052         0.025447        -2.093879
 H         1.811706        -0.387159         0.740771
 H         1.583937        -1.204697        -0.547357
 H         1.753441         0.584979        -0.760797
 H        -2.721522         1.705077         0.204706
 H        -3.346282         0.660993         2.020121
 H        -3.403632        -1.203275        -0.613921
 H        -5.592665        -0.228017        -1.547749
 H        -4.941469         1.485983        -1.476738
 H        -4.250195        -0.505297        -3.685663
 H        -3.526017         1.219856        -3.402854
