19
Iteration:  3278charge 0 multiplicity 1
 C         1.527774        -0.283413         0.119930
 C         0.143438         0.111490        -0.041137
 C        -1.029586         0.348566         0.100918
 C        -2.400999         0.726092        -0.152460
 O        -3.037532         0.968408         1.031359
 C        -3.290519        -0.297352        -0.892870
 C        -4.680669         0.135592        -1.234876
 C        -4.268808        -0.038150        -2.769568
 O        -2.954930        -0.424827        -2.363640
 H         1.869435        -0.911582        -0.667535
 H         2.142775         0.576910         0.231900
 H         1.481239        -0.832053         1.118692
 H        -2.362536         1.647255        -0.693543
 H        -3.670290         1.735518         0.992408
 H        -3.117791        -1.194210        -0.342938
 H        -5.418216        -0.594281        -0.894267
 H        -4.870213         1.097539        -0.719714
 H        -4.887028        -0.767787        -3.323733
 H        -4.380442         0.870720        -3.417574
