19
Iteration:   833
 C         1.503991        -0.010348        -0.042477
 C         0.057601         0.047998        -0.000787
 C        -1.136649         0.011720         0.250912
 C        -2.513277         0.359835         0.166653
 O        -3.382122        -0.391177         1.112462
 C        -3.105987        -0.146335        -1.154585
 C        -4.585062         0.245092        -1.392600
 C        -4.157291         0.615539        -2.825722
 O        -2.739347         0.645254        -2.309169
 H         1.872977        -0.481670        -1.018688
 H         1.855577         1.034957         0.108457
 H         1.798471        -0.544330         0.796619
 H        -2.709288         1.404041         0.366894
 H        -2.673515        -0.930326         1.640151
 H        -3.050670        -1.270236        -1.101605
 H        -5.307436        -0.565688        -1.401838
 H        -5.056321         1.088246        -0.851846
 H        -4.106414        -0.119301        -3.668128
 H        -4.535732         1.594923        -3.206599
