19
Iteration:  3308
 C         1.489841        -0.294821        -0.152602
 C         0.144455         0.087741         0.295969
 C        -1.011214         0.416827         0.102888
 C        -2.441521         0.731398        -0.115191
 O        -3.198628         1.031808         1.163668
 C        -3.285390        -0.314385        -0.946487
 C        -4.568666         0.226971        -1.292684
 C        -4.239582        -0.121999        -2.797679
 O        -2.884309        -0.509854        -2.378097
 H         1.324164        -0.369868        -1.217160
 H         2.311372         0.366069         0.247244
 H         1.813389        -1.413724         0.064888
 H        -2.463868         1.724647        -0.645800
 H        -3.600626         1.905134         1.094303
 H        -3.143884        -1.317334        -0.339928
 H        -5.383746        -0.281616        -0.828095
 H        -4.567670         1.217935        -0.901666
 H        -4.789455        -0.925464        -3.183161
 H        -4.316762         0.721087        -3.451972
