19
Iteration:  1598
 C         1.351435         0.008091        -0.432937
 C         0.025371         0.033860         0.053970
 C        -1.161375         0.182413         0.337761
 C        -2.683411         0.441553         0.308390
 O        -3.417815        -0.289696         1.334013
 C        -3.228821        -0.100027        -1.066098
 C        -4.571573         0.296618        -1.536812
 C        -3.845563         0.537292        -2.885223
 O        -2.550874         0.225582        -2.323749
 H         1.382967        -0.470584        -1.440337
 H         1.877860         1.087749        -0.318201
 H         1.987769        -0.467580         0.271873
 H        -2.844305         1.429772         0.520078
 H        -3.318975         0.235240         2.106054
 H        -3.054651        -1.177841        -0.809674
 H        -5.409714        -0.417113        -1.431650
 H        -4.872051         1.195040        -0.954649
 H        -4.133104        -0.100138        -3.744500
 H        -3.841009         1.654408        -3.171457
