19
Iteration:  1309
 C         1.673695        -0.164825         0.391263
 C         0.239610        -0.094811         0.164192
 C        -0.978289         0.024656         0.191255
 C        -2.390055         0.371400        -0.099233
 O        -3.348552        -0.037624         0.890618
 C        -2.997836        -0.176828        -1.313983
 C        -4.609436        -0.032595        -1.269779
 C        -4.537481         0.691897        -2.612898
 O        -3.044236         0.676485        -2.535656
 H         2.230708         0.710644         0.019062
 H         1.727248        -0.145985         1.477685
 H         1.917478        -1.099932        -0.241282
 H        -2.489818         1.439928        -0.095969
 H        -2.869955        -0.301074         1.675618
 H        -2.561487        -1.143953        -1.477705
 H        -5.268224        -0.881175        -1.291159
 H        -4.770762         0.605733        -0.447489
 H        -4.703796         0.204052        -3.512414
 H        -4.831317         1.727516        -2.681765
