19
Iteration:  3855charge 0 multiplicity 1
 C         1.501556        -0.311444         0.263742
 C         0.106351        -0.120921         0.071110
 C        -1.076694         0.210338         0.055342
 C        -2.266518         0.873036        -0.343304
 O        -2.890191         1.681568         0.752550
 C        -3.186108        -0.217180        -0.952398
 C        -4.729240        -0.092662        -1.045644
 C        -4.426638        -0.574947        -2.460412
 O        -3.069460        -0.273897        -2.477614
 H         1.714259        -0.376724         1.356508
 H         1.871157        -1.349270        -0.021588
 H         2.035743         0.500862        -0.195415
 H        -2.126432         1.640962        -1.209224
 H        -3.693054         1.168173         1.108807
 H        -2.912455        -1.199054        -0.585629
 H        -5.390371        -0.730659        -0.379829
 H        -5.048366         0.969864        -0.994352
 H        -4.465985        -1.644533        -2.662652
 H        -4.789840         0.093078        -3.361623
