19
Iteration:  1897charge 0 multiplicity 1
 C         1.384946        -0.325225         0.588147
 C         0.089261         0.090195         0.105052
 C        -1.024722         0.369054        -0.181359
 C        -2.457005         0.616365        -0.147423
 O        -2.796484         0.151619         1.149554
 C        -3.165206        -0.289161        -1.262256
 C        -4.695019        -0.160569        -1.361512
 C        -4.453487         0.658640        -2.609746
 O        -2.970818         0.345047        -2.549663
 H         1.257439        -1.352778         0.990608
 H         2.140259        -0.436732        -0.190305
 H         1.824790         0.283575         1.267240
 H        -2.901827         1.691876        -0.132483
 H        -2.801624        -0.860348         1.018115
 H        -2.730724        -1.302919        -1.220363
 H        -5.132831        -1.148200        -1.554814
 H        -5.346016         0.367651        -0.616940
 H        -4.920314         0.309709        -3.548395
 H        -4.340899         1.764734        -2.663789
