19
Iteration:  3872
 C         1.534164        -0.359131         0.242520
 C         0.064180        -0.203734         0.239389
 C        -1.033356         0.276751        -0.109449
 C        -2.369333         0.957100        -0.304642
 O        -2.878083         1.697712         0.791112
 C        -3.213632        -0.177766        -0.989262
 C        -4.674354        -0.088848        -1.105890
 C        -4.510140        -0.653967        -2.562046
 O        -2.984544        -0.274232        -2.375953
 H         2.123831        -0.540337         1.178463
 H         1.875692        -1.018055        -0.538661
 H         1.988475         0.636060        -0.091803
 H        -2.248327         1.627209        -1.125652
 H        -3.268682         1.217849         1.603197
 H        -3.059948        -1.160467        -0.421395
 H        -5.365479        -0.704216        -0.514218
 H        -5.126137         0.906519        -1.105040
 H        -4.733310        -1.750030        -2.655710
 H        -5.039888        -0.204343        -3.381143
