19
Iteration:  4523
 C         1.424344        -0.218039         0.473590
 C         0.103684        -0.034050        -0.010270
 C        -0.933102         0.474148        -0.449372
 C        -2.292091         0.911515        -0.545814
 O        -2.536777         1.650023         0.746225
 C        -3.408262        -0.221623        -0.797597
 C        -4.904413         0.094249        -1.146145
 C        -4.411249        -0.433439        -2.586740
 O        -3.174781        -0.925221        -2.015535
 H         2.096214         0.638270         0.051029
 H         1.619298        -0.269672         1.541257
 H         1.730152        -1.171321         0.150093
 H        -2.358980         1.549575        -1.457098
 H        -2.466220         0.987506         1.414953
 H        -3.368687        -0.955060         0.046485
 H        -5.531696        -0.606965        -0.553136
 H        -5.237391         1.119257        -1.252200
 H        -4.993622        -1.299352        -3.012392
 H        -4.135750         0.309069        -3.353558
