19
Iteration:  4997charge 0 multiplicity 1
 C         1.431210        -0.357526         0.618392
 C         0.252843         0.166905        -0.185307
 C        -0.823397         0.505250        -0.609357
 C        -2.276837         0.947432        -0.544547
 O        -2.645324         1.451999         0.708455
 C        -3.366421        -0.161378        -0.795083
 C        -4.794861         0.321120        -1.177806
 C        -4.544744        -0.629359        -2.413362
 O        -3.224303        -0.957081        -2.001872
 H         2.079299         0.354250         1.232059
 H         0.857581        -0.959083         1.399506
 H         2.101684        -1.078265         0.136958
 H        -2.420545         1.718269        -1.383082
 H        -2.703699         2.478957         0.594872
 H        -3.071920        -0.769566         0.173833
 H        -5.627255        -0.144578        -0.545374
 H        -5.028827         1.367680        -1.356740
 H        -5.229955        -1.488270        -2.358900
 H        -4.655467        -0.146836        -3.402153
