19
Iteration:  3222charge 0 multiplicity 1
 C         1.404233        -0.223859         0.432099
 C         0.048626         0.041523         0.078332
 C        -1.042894         0.384572        -0.264633
 C        -2.443572         0.731951        -0.323962
 O        -2.605480         0.959659         1.096350
 C        -3.210084        -0.360340        -0.945347
 C        -4.816674         0.016889        -1.249409
 C        -4.371778         0.063855        -2.704531
 O        -3.018256        -0.350293        -2.418273
 H         1.713335        -1.212637         0.576096
 H         1.985594         0.212657        -0.325173
 H         1.445433         0.318175         1.458004
 H        -2.554557         1.657211        -0.846738
 H        -3.521742         0.971183         1.280675
 H        -2.957144        -1.328708        -0.584107
 H        -5.469755        -0.837761        -1.081126
 H        -5.256839         0.855063        -0.716454
 H        -4.962908        -0.621285        -3.332772
 H        -4.330422         1.144647        -3.029473
