19
Iteration:  3660
 C         1.515763        -0.242396         0.329864
 C         0.150313         0.154503         0.169475
 C        -0.920200         0.629737        -0.210446
 C        -2.330052         0.857342        -0.380577
 O        -2.783224         1.212991         0.947306
 C        -3.275684        -0.312899        -0.946089
 C        -4.854631        -0.006251        -1.209651
 C        -4.405596        -0.168957        -2.672084
 O        -3.127467        -0.733027        -2.290840
 H         1.936323        -0.568858        -0.608621
 H         2.045967         0.657399         0.661400
 H         1.825761        -1.146066         0.942698
 H        -2.543746         1.709404        -1.047342
 H        -2.957934         0.313504         1.362833
 H        -3.213222        -1.107412        -0.056329
 H        -5.582256        -0.706674        -0.770403
 H        -5.141562         1.049090        -0.941065
 H        -5.078184        -0.852844        -3.341421
 H        -4.363683         0.808732        -3.150238
