19
Iteration:  4132charge 0 multiplicity 1
 C         1.488022        -0.429100        -0.188233
 C         0.191084         0.193989         0.029158
 C        -0.988224         0.398664         0.048012
 C        -2.430246         0.818380        -0.232568
 O        -3.186958         1.632807         0.752294
 C        -3.398107        -0.319324        -0.648508
 C        -4.596464         0.351329        -1.411508
 C        -4.019492        -0.292205        -2.626733
 O        -3.061536        -1.023333        -1.893120
 H         2.289523         0.114926        -0.529374
 H         1.699939        -0.934434         0.728354
 H         1.375255        -1.290633        -0.908780
 H        -2.154099         1.453239        -1.019621
 H        -3.113752         1.154717         1.588635
 H        -3.398866        -0.933972         0.314724
 H        -5.583386        -0.131067        -1.258324
 H        -4.740561         1.436592        -1.408260
 H        -4.807771        -0.967629        -2.982397
 H        -3.645898         0.455023        -3.369951
