19
Iteration:  3592charge 0 multiplicity 1
 C         1.521799        -0.120385        -0.064979
 C         0.047847         0.061412        -0.127308
 C        -1.091939         0.327918         0.183068
 C        -2.477566         0.654906        -0.147532
 O        -3.132408         1.209464         0.980099
 C        -3.385047        -0.381545        -0.817598
 C        -4.582499         0.323767        -1.362905
 C        -4.170941        -0.212452        -2.699877
 O        -2.863760        -0.632912        -2.105487
 H         1.918627        -1.157970        -0.320716
 H         1.825814         0.638587        -0.895628
 H         2.041546         0.023475         0.855179
 H        -2.292887         1.395772        -0.941881
 H        -2.535304         1.623763         1.570206
 H        -3.555129        -1.471003        -0.340320
 H        -5.558757        -0.042240        -1.023383
 H        -4.607574         1.392067        -1.279215
 H        -4.672820        -1.181641        -3.057362
 H        -4.061674         0.470175        -3.576467
