19
Iteration:  1666
 C         1.290308        -0.262232        -0.208422
 C        -0.059040         0.283541         0.001371
 C        -1.282878         0.529186         0.060114
 C        -2.666035         0.466944         0.312804
 O        -3.093410        -0.354637         1.491903
 C        -3.302333        -0.112569        -1.055603
 C        -4.634433         0.215555        -1.624067
 C        -3.848181         0.555160        -2.926995
 O        -2.596683         0.294734        -2.264206
 H         1.828379         0.048815        -1.176830
 H         1.936534         0.059843         0.709780
 H         1.188163        -1.365313        -0.153706
 H        -3.021101         1.404093         0.387364
 H        -2.527254        -1.218202         1.486020
 H        -3.186768        -1.202682        -1.079811
 H        -5.477768        -0.493359        -1.643058
 H        -5.060494         1.136920        -1.197622
 H        -3.889312        -0.250235        -3.680715
 H        -3.806594         1.495959        -3.455527
