19
Iteration:   122
 C         1.585795        -0.064779         0.470302
 C         0.201461         0.043689         0.212855
 C        -0.980980        -0.054120        -0.000216
 C        -2.422156         0.160881        -0.089322
 O        -3.111804        -0.894401         0.755978
 C        -3.171911        -0.146162        -1.422849
 C        -4.695916         0.151447        -1.353088
 C        -4.429992         1.370503        -2.258819
 O        -3.020316         0.868521        -2.512309
 H         1.991456        -0.536124        -0.438538
 H         2.002427         0.922680         0.592376
 H         1.786177        -0.606883         1.276554
 H        -2.674183         1.131415         0.272716
 H        -2.404523        -1.609651         0.872388
 H        -2.853190        -1.159745        -1.672377
 H        -5.353534        -0.634712        -1.799138
 H        -4.836441         0.406947        -0.370311
 H        -5.082716         1.417032        -3.132317
 H        -4.592527         2.296403        -1.697687
