19
Iteration:  2630charge 0 multiplicity 1
 C         1.571430        -0.393995         0.272605
 C         0.183025         0.210154         0.188600
 C        -0.984482         0.429034        -0.087719
 C        -2.468834         0.661307        -0.237829
 O        -3.168047         0.516497         1.111775
 C        -3.217690        -0.310092        -1.052962
 C        -4.657961         0.134763        -1.202589
 C        -4.355957         0.246643        -2.707487
 O        -2.950559        -0.109637        -2.522520
 H         1.446907        -1.350266        -0.221636
 H         2.279686         0.155240        -0.334648
 H         1.997262        -0.557863         1.293059
 H        -2.520953         1.578051        -0.718107
 H        -2.640547         0.910838         1.851181
 H        -2.853298        -1.293882        -0.711416
 H        -5.349940        -0.696819        -1.068721
 H        -5.065905         1.010337        -0.711427
 H        -4.886563        -0.592433        -3.289583
 H        -4.438387         1.358262        -3.068112
