19
Iteration:  1974charge 0 multiplicity 1
 C         1.518586        -0.343027         0.294162
 C         0.215177         0.153460         0.246442
 C        -0.972482         0.319250        -0.040331
 C        -2.409126         0.551153        -0.061526
 O        -3.194514         0.137941         1.131030
 C        -3.138151        -0.253713        -1.168513
 C        -4.626381        -0.097854        -1.332396
 C        -4.410602         0.611863        -2.684943
 O        -2.954012         0.266058        -2.587974
 H         1.565927        -1.197078        -0.486093
 H         2.378922         0.341305         0.127249
 H         1.630146        -0.876354         1.199541
 H        -2.569582         1.628304        -0.204378
 H        -3.178655         0.929794         1.721709
 H        -2.681669        -1.236350        -1.139074
 H        -5.360189        -0.933356        -1.392737
 H        -5.158666         0.637059        -0.692376
 H        -4.726284         0.011446        -3.556392
 H        -4.737587         1.699211        -2.780123
