19
Iteration:  4458
 C         1.478839        -0.287260         0.561060
 C         0.192631         0.215661        -0.036537
 C        -0.910500         0.451804        -0.420825
 C        -2.308451         0.778205        -0.648327
 O        -2.929087         1.427839         0.525558
 C        -3.279750        -0.407395        -0.778058
 C        -4.650448         0.247191        -0.953699
 C        -4.476893        -0.314168        -2.471425
 O        -3.162526        -0.834633        -2.094623
 H         2.091226        -0.598554        -0.357542
 H         1.973580         0.315214         1.302327
 H         1.296175        -1.214917         1.100349
 H        -2.360076         1.488451        -1.510287
 H        -2.123024         1.806941         1.016272
 H        -3.219937        -1.167127         0.128639
 H        -5.575912        -0.125376        -0.483891
 H        -4.692197         1.310191        -0.718306
 H        -5.172341        -1.211028        -2.611534
 H        -4.390502         0.460378        -3.280539
