19
Iteration:  1763charge 0 multiplicity 1
 C         1.605805        -0.153278         0.078472
 C         0.144261         0.089563         0.158665
 C        -1.028882         0.071951         0.296315
 C        -2.516681         0.384872         0.023442
 O        -3.274266        -0.078696         1.121991
 C        -3.172246        -0.184327        -1.229321
 C        -4.670006         0.126965        -1.432279
 C        -4.276306         0.578454        -2.801280
 O        -2.844672         0.486247        -2.440159
 H         2.135475         0.643924         0.554874
 H         1.567970        -1.150970         0.613255
 H         1.876358        -0.279801        -0.874641
 H        -2.552710         1.573807         0.072747
 H        -2.899150         0.173204         2.051554
 H        -2.943955        -1.286625        -1.259359
 H        -5.352275        -0.744482        -1.313248
 H        -5.053413         0.765002        -0.625971
 H        -4.343563        -0.074241        -3.686654
 H        -4.656792         1.648678        -3.044823
