19
Iteration:  1985
 C         1.592098        -0.370762         0.226709
 C         0.175320         0.148795         0.254522
 C        -0.984144         0.241794        -0.032079
 C        -2.476509         0.505322        -0.030709
 O        -3.219869         0.210726         1.213938
 C        -3.142363        -0.248067        -1.213831
 C        -4.661458        -0.072549        -1.386382
 C        -4.357823         0.540373        -2.738168
 O        -2.953517         0.329256        -2.542641
 H         2.016518        -0.941144        -0.681821
 H         2.186976         0.587413         0.284355
 H         1.791037        -0.917439         1.112640
 H        -2.618159         1.557529        -0.182253
 H        -3.102751         1.056551         1.784291
 H        -2.996327        -1.308126        -1.124741
 H        -5.024116        -1.119583        -1.301456
 H        -5.022098         0.560416        -0.550831
 H        -4.872195         0.059329        -3.585574
 H        -4.421822         1.648781        -2.933392
