19
Iteration:  1648
 C         1.286709        -0.240891        -0.260148
 C        -0.055461         0.368887         0.011295
 C        -1.231863         0.474167         0.226112
 C        -2.719311         0.417765         0.220498
 O        -3.149200        -0.329303         1.319410
 C        -3.254338        -0.274113        -1.019948
 C        -4.627676         0.344232        -1.600433
 C        -3.847491         0.515460        -2.882908
 O        -2.561865         0.298126        -2.205054
 H         1.355911        -0.116875        -1.340750
 H         2.067783         0.079044         0.320399
 H         1.419351        -1.380848        -0.083555
 H        -3.194589         1.543743         0.298888
 H        -2.400985        -0.936638         1.673924
 H        -3.258063        -1.351031        -0.752559
 H        -5.444981        -0.375720        -1.605518
 H        -4.976131         1.279186        -1.133952
 H        -4.006158        -0.262310        -3.673300
 H        -3.878909         1.516395        -3.320414
