19
Iteration:   215charge 0 multiplicity 1
 C         1.528933        -0.023021         0.183372
 C         0.110110        -0.072918         0.161323
 C        -1.079720         0.074261        -0.075873
 C        -2.565549         0.076046         0.132805
 O        -2.952671        -0.967931         1.046126
 C        -3.254450        -0.072005        -1.265851
 C        -4.834125         0.086228        -1.657063
 C        -4.209177         1.164682        -2.594583
 O        -2.842802         1.068484        -2.157248
 H         1.818276         0.866539        -0.182681
 H         1.963753        -0.315603         1.125174
 H         1.834435        -0.861577        -0.581895
 H        -2.764275         1.030460         0.633975
 H        -3.556598        -0.621023         1.646106
 H        -2.779849        -0.883750        -1.816639
 H        -5.108958        -0.852253        -2.102752
 H        -5.378643         0.736944        -0.855716
 H        -4.213760         1.018843        -3.724600
 H        -4.524582         2.220939        -2.438743
