19
Iteration:  1558
 C         1.433577         0.184569        -0.410360
 C        -0.005259        -0.057642         0.002782
 C        -1.197732        -0.109045         0.239271
 C        -2.612039         0.288352         0.192017
 O        -3.467864        -0.067406         1.363462
 C        -3.197067        -0.317845        -1.071762
 C        -4.640701         0.270278        -1.494965
 C        -3.831933         0.632146        -2.845899
 O        -2.558120         0.331921        -2.164626
 H         1.921830        -0.700369        -0.916624
 H         1.522276         1.073676        -0.905205
 H         2.048581         0.207783         0.534127
 H        -2.631754         1.484198        -0.030337
 H        -3.503383         0.757042         1.920418
 H        -3.299949        -1.416856        -1.170400
 H        -5.493671        -0.423207        -1.459191
 H        -4.883478         1.209524        -0.986126
 H        -3.940602        -0.042766        -3.749554
 H        -3.803718         1.668627        -3.201327
