19
Iteration:  1604charge 0 multiplicity 1
 C         1.357203        -0.018096        -0.413935
 C        -0.009753         0.084419         0.070542
 C        -1.184378         0.237593         0.297046
 C        -2.690291         0.437750         0.327518
 O        -3.409220        -0.310238         1.326166
 C        -3.225963        -0.122391        -1.011482
 C        -4.527648         0.297981        -1.529636
 C        -3.826629         0.558409        -2.901489
 O        -2.555974         0.211925        -2.338245
 H         1.361917        -0.414322        -1.413216
 H         1.788293         0.927721        -0.358560
 H         2.074184        -0.721829         0.161522
 H        -2.826151         1.602877         0.541061
 H        -3.211543         0.133872         2.224797
 H        -3.018659        -1.206654        -1.050106
 H        -5.368898        -0.385346        -1.550723
 H        -4.777580         1.217326        -0.997861
 H        -4.314633        -0.129747        -3.624636
 H        -4.064813         1.583915        -3.259215
