19
Iteration:  4854charge 0 multiplicity 1
 C         1.330497        -0.534859        -0.069545
 C        -0.019773        -0.077304         0.153527
 C        -1.050427         0.596314        -0.017086
 C        -2.333710         1.039246        -0.380865
 O        -2.778889         1.878253         0.623467
 C        -3.302236        -0.224441        -0.740417
 C        -4.717133         0.099656        -1.136130
 C        -4.230014        -0.678367        -2.487212
 O        -2.918959        -0.899791        -1.995350
 H         1.249782        -0.601585        -1.179939
 H         1.940657         0.181663         0.406908
 H         1.567248        -1.462472         0.428966
 H        -2.314327         1.610129        -1.352706
 H        -3.610975         2.339107         0.254321
 H        -3.201730        -0.941180         0.185346
 H        -5.663332        -0.276955        -0.791122
 H        -4.893907         1.172223        -1.324236
 H        -4.807530        -1.545666        -2.680210
 H        -4.301448         0.000207        -3.326886
