19
Iteration:  1668charge 0 multiplicity 1
 C         1.299958        -0.260870        -0.190376
 C        -0.063334         0.279502        -0.007617
 C        -1.295328         0.533653         0.048783
 C        -2.664572         0.461326         0.321355
 O        -3.079834        -0.356603         1.501722
 C        -3.302407        -0.112750        -1.052372
 C        -4.640853         0.210408        -1.627892
 C        -3.847121         0.559418        -2.927878
 O        -2.596265         0.304376        -2.283357
 H         1.794703         0.071061        -1.157982
 H         1.875372        -0.008382         0.687916
 H         1.299534        -1.442054        -0.176451
 H        -3.033252         1.483430         0.397848
 H        -2.597699        -1.198038         1.493185
 H        -3.230894        -1.191164        -0.997673
 H        -5.445914        -0.525265        -1.616767
 H        -5.082102         1.139568        -1.239804
 H        -3.846917        -0.239601        -3.679116
 H        -3.839338         1.462838        -3.424328
