19
Iteration:  3715charge 0 multiplicity 1
 C         1.321319        -0.264727         0.643043
 C         0.194268         0.161729        -0.256872
 C        -0.977768         0.428849        -0.425165
 C        -2.424242         0.822098        -0.478980
 O        -2.792994         1.157093         0.835069
 C        -3.209230        -0.337340        -0.849601
 C        -4.689621        -0.100625        -1.002120
 C        -4.421367        -0.188325        -2.546792
 O        -3.050183        -0.389304        -2.305581
 H         2.354813        -0.004003         0.368828
 H         1.213363         0.160881         1.656989
 H         1.300104        -1.440715         0.630088
 H        -2.543333         1.505202        -1.328774
 H        -2.137920         1.787304         1.163832
 H        -3.232178        -1.293777        -0.222233
 H        -5.332921        -0.873320        -0.559205
 H        -5.101808         0.837896        -0.527775
 H        -4.936710        -1.129088        -3.028294
 H        -4.696237         0.677524        -3.122380
