19
Iteration:  4004charge 0 multiplicity 1
 C         1.325503        -0.486073         0.050547
 C         0.018872         0.093380        -0.006872
 C        -1.049905         0.586620        -0.393269
 C        -2.415605         1.057325        -0.270331
 O        -2.858281         1.380647         1.116778
 C        -3.380316        -0.163606        -0.750074
 C        -4.712319         0.175690        -1.429284
 C        -4.093603        -0.465621        -2.752513
 O        -2.935333        -0.883882        -1.915680
 H         1.557081        -1.244652        -0.785307
 H         2.107295         0.316141        -0.065466
 H         1.372971        -1.007976         1.065754
 H        -2.672741         1.999871        -0.898256
 H        -2.570123         2.335225         1.339314
 H        -3.332923        -0.684497         0.205723
 H        -5.481298        -0.478477        -0.985144
 H        -4.991271         1.230703        -1.292480
 H        -4.793067        -1.301446        -2.981246
 H        -3.895155         0.075532        -3.662129
