19
Iteration:  1472
 C         1.557304        -0.085968        -0.057903
 C         0.072666         0.161787         0.129821
 C        -1.156374         0.344327         0.072187
 C        -2.631840         0.438296         0.148664
 O        -3.276457        -0.190658         1.298094
 C        -3.264708        -0.288505        -1.089302
 C        -4.657861         0.175433        -1.487222
 C        -3.964786         0.846809        -2.731681
 O        -2.756694         0.083972        -2.462328
 H         2.095359        -0.791634         0.657242
 H         1.694484        -0.598300        -0.957618
 H         2.139710         0.910730        -0.062143
 H        -2.913642         1.479617         0.096587
 H        -2.878687        -1.136926         1.401720
 H        -3.302196        -1.378350        -0.851318
 H        -5.403016        -0.597379        -1.690952
 H        -5.073247         0.937032        -0.849654
 H        -4.481358         0.512808        -3.664138
 H        -3.893720         2.014725        -2.731217
