19
Iteration:  2595charge 0 multiplicity 1
 C         1.578513        -0.279645         0.320361
 C         0.143701        -0.060543         0.034323
 C        -1.011091         0.332799         0.107240
 C        -2.362558         0.663695        -0.171685
 O        -3.117093         0.672749         1.125362
 C        -3.149030        -0.225091        -1.074295
 C        -4.661820         0.110283        -1.200714
 C        -4.434834         0.124253        -2.738573
 O        -2.982470         0.025998        -2.580979
 H         1.788898        -1.279092         0.595684
 H         2.068468        -0.090220        -0.569799
 H         2.092103         0.396972         1.146905
 H        -2.515694         1.639544        -0.517749
 H        -3.091536        -0.323000         1.283446
 H        -2.953625        -1.321276        -0.988724
 H        -5.222870        -0.832673        -0.992714
 H        -5.221203         0.993377        -0.752016
 H        -4.841267        -0.670428        -3.443346
 H        -4.834703         1.093616        -3.268575
