19
Iteration:  3201
 C         1.437534        -0.214949         0.536637
 C         0.062647         0.123944         0.133659
 C        -1.016433         0.420839        -0.386237
 C        -2.429914         0.763223        -0.365414
 O        -2.596475         0.915602         1.170677
 C        -3.315455        -0.400135        -1.061235
 C        -4.728945        -0.046354        -1.166278
 C        -4.427112         0.136363        -2.720977
 O        -3.037215        -0.412313        -2.482400
 H         1.384717        -1.175871         0.906722
 H         1.962854        -0.389136        -0.308718
 H         1.879507         0.433326         1.289213
 H        -2.691805         1.739610        -0.831148
 H        -3.551371         1.149352         1.346775
 H        -2.958197        -1.297963        -0.708704
 H        -5.432626        -0.822199        -0.880309
 H        -4.966286         0.914220        -0.655484
 H        -5.103087        -0.500471        -3.379361
 H        -4.447075         1.262180        -2.917626
