19
Iteration:  4532
 C         1.431504        -0.222096         0.439408
 C         0.075514        -0.045911        -0.006053
 C        -0.952450         0.366063        -0.432187
 C        -2.348229         0.901033        -0.578443
 O        -2.595750         1.618963         0.678496
 C        -3.413033        -0.202976        -0.750231
 C        -4.858948         0.105595        -1.190434
 C        -4.379924        -0.444307        -2.538969
 O        -3.097293        -0.849565        -1.964965
 H         2.008812         0.677449        -0.008895
 H         1.455001        -0.368414         1.525338
 H         1.958587        -1.008670        -0.052321
 H        -2.452746         1.760234        -1.268305
 H        -2.395352         1.081800         1.418918
 H        -3.208870        -0.874093         0.024928
 H        -5.752889        -0.329733        -0.679744
 H        -5.086752         1.131692        -0.925419
 H        -4.893608        -1.358567        -2.890299
 H        -4.281098         0.256355        -3.361218
