19
Iteration:  2047charge 0 multiplicity 1
 C         1.545832        -0.110055        -0.002178
 C         0.063201        -0.209118         0.056314
 C        -1.136139         0.026142         0.029494
 C        -2.505771         0.555492         0.090852
 O        -3.296732         0.413782         1.316220
 C        -3.216333        -0.210904        -1.123049
 C        -4.663118         0.032334        -1.433596
 C        -4.148121         0.325892        -2.783012
 O        -2.729581         0.397256        -2.422713
 H         1.986206         0.567098        -0.745201
 H         1.653476         0.536547         0.947898
 H         2.080954        -1.067340         0.077080
 H        -2.423111         1.695461        -0.252316
 H        -3.132265        -0.494847         1.798714
 H        -2.805780        -1.256800        -0.986863
 H        -5.372900        -0.761277        -1.314469
 H        -4.955180         0.821148        -0.741785
 H        -4.547191        -0.497837        -3.481747
 H        -4.432094         1.332352        -3.085058
