19
Iteration:   375
 C         1.390087         0.198781        -0.288584
 C        -0.048613         0.164380        -0.173239
 C        -1.191852         0.013040         0.277145
 C        -2.700747         0.036938         0.267039
 O        -3.400775        -0.917109         1.168329
 C        -3.165416        -0.197119        -1.209385
 C        -4.580383         0.163732        -1.656023
 C        -3.842567         1.003114        -2.713281
 O        -2.571496         0.877819        -1.934284
 H         1.810207        -0.795685         0.209398
 H         1.744241         0.198451        -1.314909
 H         1.783027         1.105609         0.101404
 H        -2.889968         1.148352         0.578504
 H        -3.421032        -0.510424         1.997152
 H        -2.764252        -1.193135        -1.452835
 H        -5.092032        -0.666288        -2.069001
 H        -5.103845         0.692271        -0.940080
 H        -3.801756         0.738003        -3.765264
 H        -4.128415         2.059546        -2.587537
