19
Iteration:   638
 C         1.574849        -0.228462         0.369129
 C         0.089939         0.015820         0.290910
 C        -1.083762         0.261859         0.120191
 C        -2.520076         0.416646        -0.055523
 O        -3.123681        -0.404976         0.890097
 C        -3.045332        -0.128850        -1.429160
 C        -4.589408        -0.154382        -1.346679
 C        -4.353956         0.960427        -2.516987
 O        -3.003180         0.709607        -2.486708
 H         2.053391         0.466130         1.151235
 H         1.769339        -1.223078         0.588031
 H         1.983270         0.049030        -0.552966
 H        -2.811829         1.506073         0.127754
 H        -2.715355        -1.345085         0.634255
 H        -2.545129        -1.130669        -1.454023
 H        -5.094559        -1.073420        -1.648859
 H        -5.006340         0.184484        -0.393552
 H        -4.954214         0.773489        -3.383740
 H        -4.611724         1.968169        -2.186623
