19
Iteration:  4887
 C         1.537216        -0.502638         0.039540
 C         0.145118        -0.080591         0.026715
 C        -1.024612         0.266021         0.070038
 C        -2.324893         1.015441        -0.379306
 O        -2.892884         1.973789         0.440647
 C        -3.395903        -0.161047        -0.642451
 C        -4.789818         0.067035        -1.159671
 C        -4.324733        -0.650330        -2.478730
 O        -2.982677        -0.750642        -1.963706
 H         2.054540        -0.170866        -0.901598
 H         2.028498         0.098197         0.717054
 H         1.561828        -1.549734         0.056857
 H        -1.860324         1.567479        -1.186927
 H        -3.804835         1.786176         0.551167
 H        -3.241384        -1.050844         0.052036
 H        -5.617977        -0.420257        -0.647002
 H        -5.013031         1.120363        -1.329804
 H        -4.718746        -1.593841        -2.765964
 H        -4.333119        -0.021277        -3.359139
