19
Iteration:   727charge 0 multiplicity 1
 C         1.460496        -0.409395         0.170993
 C         0.056909         0.035246        -0.039786
 C        -1.104963         0.435563        -0.076404
 C        -2.592314         0.475347         0.071595
 O        -3.223509        -0.383213         1.149199
 C        -3.032808        -0.177860        -1.228322
 C        -4.471087        -0.298154        -1.612466
 C        -4.257794         0.727493        -2.653532
 O        -2.907156         0.985495        -2.132484
 H         1.546182        -1.109944         1.012157
 H         2.013752        -0.784215        -0.623612
 H         2.028722         0.525758         0.564593
 H        -3.019289         1.486224         0.264030
 H        -2.650357        -0.340469         2.011770
 H        -2.506132        -1.154155        -1.433603
 H        -4.948860        -1.242100        -1.829748
 H        -5.084347         0.229127        -0.840234
 H        -4.350799         0.363277        -3.693920
 H        -4.737027         1.704929        -2.754960
