19
Iteration:  1228
 C         1.454973        -0.448350         0.343878
 C         0.157182         0.049344         0.042716
 C        -1.001929         0.421607        -0.126394
 C        -2.493341         0.487128         0.144594
 O        -3.045247        -0.143711         1.288290
 C        -3.161917        -0.106872        -1.239740
 C        -4.676475        -0.178283        -1.542746
 C        -4.262702         0.464614        -2.857822
 O        -3.036737         0.910677        -2.326133
 H         1.939632        -0.788707        -0.660380
 H         2.100444         0.210443         0.895676
 H         1.430242        -1.286544         1.036378
 H        -2.844396         1.579426         0.291751
 H        -2.596763        -0.958158         1.336308
 H        -2.677796        -1.015200        -1.615268
 H        -5.255324        -1.143418        -1.623812
 H        -5.192095         0.379801        -0.715855
 H        -4.060682        -0.058310        -3.747371
 H        -4.815956         1.325335        -3.232690
