19
Iteration:  2117
 C         1.445851        -0.235593        -0.223433
 C         0.066153         0.197980         0.137137
 C        -1.108565         0.364289         0.104438
 C        -2.594169         0.597340         0.164445
 O        -3.314752         0.069665         1.330881
 C        -3.251437        -0.121823        -1.000892
 C        -4.594346         0.372657        -1.424231
 C        -4.022112         0.249139        -2.882349
 O        -2.673606         0.021017        -2.377906
 H         2.326575         0.569311        -0.057590
 H         1.658470        -0.975585         0.625463
 H         1.530271        -0.703101        -1.223106
 H        -2.837172         1.685322         0.184907
 H        -3.076900        -0.925147         1.314346
 H        -3.322996        -1.191592        -0.648645
 H        -5.550968        -0.205971        -1.239352
 H        -4.873748         1.423788        -1.223514
 H        -4.280002        -0.618249        -3.435707
 H        -4.145626         1.164819        -3.504571
