19
Iteration:   155charge 0 multiplicity 1
 C         1.589418        -0.063513         0.444023
 C         0.207631         0.011496         0.071036
 C        -1.004637         0.102785        -0.079810
 C        -2.489636         0.086894        -0.056555
 O        -3.168315        -0.892169         0.879819
 C        -3.154176        -0.170624        -1.433342
 C        -4.607544         0.138376        -1.311552
 C        -4.385695         1.306355        -2.361978
 O        -2.946824         0.933149        -2.372509
 H         2.317097         0.016188        -0.450720
 H         1.868006         0.685956         1.191460
 H         1.805147        -0.991706         0.777828
 H        -2.841625         1.033139         0.301988
 H        -3.784463        -1.487832         0.334383
 H        -2.763038        -1.107401        -1.862598
 H        -5.324277        -0.701226        -1.540993
 H        -4.859572         0.338690        -0.322029
 H        -4.888225         1.057461        -3.292016
 H        -4.638560         2.314881        -1.998081
