19
Iteration:  1987charge 0 multiplicity 1
 C         1.610845        -0.363556         0.218364
 C         0.179916         0.134334         0.244884
 C        -1.009689         0.234161        -0.022663
 C        -2.483996         0.494073        -0.026271
 O        -3.217176         0.223388         1.224454
 C        -3.148062        -0.245041        -1.226959
 C        -4.672056        -0.059674        -1.379273
 C        -4.344830         0.527110        -2.748901
 O        -2.943226         0.336328        -2.533662
 H         1.973202        -0.858099        -0.701793
 H         2.165788         0.517165         0.350032
 H         1.856368        -0.888872         1.120411
 H        -2.623286         1.636624        -0.251768
 H        -3.097478         1.014857         1.782591
 H        -2.958031        -1.347722        -1.135319
 H        -5.039414        -1.115123        -1.331176
 H        -5.056830         0.524438        -0.520131
 H        -4.899912         0.026000        -3.657432
 H        -4.434623         1.641224        -2.894821
