19
Iteration:  3174charge 0 multiplicity 1
 C         1.471117        -0.246859         0.588373
 C         0.244057         0.179736        -0.021596
 C        -0.876434         0.487482        -0.350680
 C        -2.318273         0.739863        -0.307377
 O        -2.842366         0.777650         1.001572
 C        -3.310979        -0.329160        -0.979988
 C        -4.761463        -0.034095        -1.135284
 C        -4.437897         0.161030        -2.652172
 O        -3.103612        -0.390979        -2.468578
 H         1.112354        -0.908701         1.504492
 H         2.028682        -0.999861        -0.134925
 H         2.049959         0.588155         1.097207
 H        -2.431329         1.715673        -0.815275
 H        -3.534637         1.486053         0.896204
 H        -3.061603        -1.408488        -0.612736
 H        -5.375216        -0.928265        -0.914519
 H        -5.266694         0.781507        -0.611059
 H        -5.077323        -0.440824        -3.221590
 H        -4.508271         1.192830        -2.900683
