19
Iteration:  3302
 C         1.526229        -0.308399        -0.081147
 C         0.145786         0.106130         0.226693
 C        -1.051504         0.406713         0.121874
 C        -2.433343         0.721887        -0.166846
 O        -3.171190         1.040095         1.174682
 C        -3.230969        -0.366618        -1.000887
 C        -4.612120         0.217830        -1.302339
 C        -4.237821        -0.090122        -2.721233
 O        -2.890940        -0.508533        -2.385461
 H         1.315693        -0.394169        -1.181857
 H         2.276738         0.408665         0.145102
 H         1.710771        -1.274807         0.347059
 H        -2.474485         1.690456        -0.635446
 H        -3.604346         1.877416         1.148194
 H        -3.211203        -1.186748        -0.377010
 H        -5.438140        -0.323424        -0.769658
 H        -4.567936         1.296369        -0.936293
 H        -4.891793        -0.878559        -3.315597
 H        -4.481164         0.787156        -3.428075
