19
Iteration:  2930
 C         1.323432        -0.413625        -0.092473
 C        -0.023984         0.188092        -0.121637
 C        -1.197480         0.547466        -0.160356
 C        -2.588393         0.855873         0.093654
 O        -3.021924         0.593072         1.390689
 C        -3.294269        -0.174807        -0.915538
 C        -4.583410         0.288579        -1.391198
 C        -4.065563        -0.209140        -2.841258
 O        -2.632963        -0.218346        -2.219739
 H         1.428113        -1.427142        -0.643880
 H         2.134523         0.277244        -0.543275
 H         1.518853        -0.381560         0.962088
 H        -2.831967         1.823589        -0.299459
 H        -3.948424         0.401790         1.334379
 H        -3.227665        -1.213589        -0.525219
 H        -5.430435        -0.290409        -1.105197
 H        -4.707947         1.326740        -1.388294
 H        -4.414408        -1.209872        -3.141577
 H        -3.964680         0.478024        -3.695813
