19
Iteration:  2592charge 0 multiplicity 1
 C         1.574445        -0.270784         0.344110
 C         0.138528        -0.083822         0.028346
 C        -1.022534         0.311584         0.117391
 C        -2.368370         0.682324        -0.139603
 O        -3.086820         0.676869         1.130226
 C        -3.136720        -0.237928        -1.081630
 C        -4.678944         0.100404        -1.203609
 C        -4.451386         0.126487        -2.764155
 O        -2.973165         0.043710        -2.601336
 H         1.816391        -1.331841         0.586283
 H         2.143413        -0.077525        -0.639826
 H         2.078174         0.518403         0.997198
 H        -2.584815         1.757542        -0.538461
 H        -3.180847        -0.247129         1.260368
 H        -3.055987        -1.338557        -0.960774
 H        -5.213591        -0.841957        -0.954627
 H        -5.190354         0.964779        -0.692760
 H        -4.803799        -0.693668        -3.355704
 H        -4.797908         0.996897        -3.250931
