19
Iteration:  1389charge 0 multiplicity 1
 C         1.532765        -0.146294         0.396778
 C         0.050614         0.003050         0.067196
 C        -1.136975         0.279382        -0.098343
 C        -2.562637         0.497813        -0.036567
 O        -2.913934        -0.186630         1.150688
 C        -3.263826        -0.266687        -1.229249
 C        -4.728636         0.034066        -1.524240
 C        -4.249913         0.871960        -2.604917
 O        -2.872273         0.318429        -2.418732
 H         1.607757         0.533180         1.188674
 H         1.758757        -1.303857         0.685820
 H         2.207734        -0.077359        -0.453743
 H        -2.990688         1.538157        -0.147538
 H        -2.104314        -0.137137         1.688967
 H        -3.130771        -1.336261        -0.989588
 H        -5.240167        -0.867818        -1.931329
 H        -5.470243         0.424346        -0.784263
 H        -4.674000         0.645496        -3.598439
 H        -4.170362         1.947932        -2.496533
