19
Iteration:  4622charge 0 multiplicity 1
 C         1.515539        -0.494045         0.004170
 C         0.224833         0.155410         0.259450
 C        -0.905258         0.440055        -0.039279
 C        -2.307710         1.034064        -0.425105
 O        -3.072924         1.536273         0.746697
 C        -3.319877        -0.084610        -0.762107
 C        -4.648979         0.329658        -1.439284
 C        -4.378658        -0.684549        -2.515282
 O        -3.112571        -0.974283        -1.941974
 H         2.480998        -0.271025         0.565299
 H         1.392156        -1.486875        -0.321938
 H         1.736570        -0.142503        -0.998382
 H        -2.114111         1.782609        -1.198593
 H        -2.609335         2.335457         0.958226
 H        -3.377668        -0.501066         0.190828
 H        -5.546010         0.102911        -0.883637
 H        -4.855767         1.382100        -1.596613
 H        -5.046429        -1.567221        -2.540706
 H        -4.345442        -0.217044        -3.500979
