19
Iteration:  4226charge 0 multiplicity 1
 C         1.336544        -0.452826         0.295356
 C         0.011831        -0.039879        -0.189381
 C        -1.054819         0.571490        -0.332668
 C        -2.385706         1.035699        -0.366786
 O        -2.704209         1.352601         1.014232
 C        -3.358580        -0.015325        -0.822812
 C        -4.793542         0.143119        -1.386951
 C        -4.262372        -0.716906        -2.557949
 O        -2.945856        -0.614765        -2.039177
 H         1.532833         0.150377         1.299051
 H         1.460319        -1.582158         0.416924
 H         2.250555        -0.257458        -0.233118
 H        -2.419884         1.901118        -1.027472
 H        -2.327632         2.310246         1.041885
 H        -3.500808        -0.773612        -0.048343
 H        -5.588812        -0.322251        -0.781863
 H        -5.108891         1.207568        -1.421892
 H        -4.562595        -1.776991        -2.478687
 H        -4.338405        -0.197747        -3.508916
