19
Iteration:   293
 C         1.424365         0.017206        -0.320939
 C         0.000981         0.021713         0.181190
 C        -1.198801         0.162370         0.353037
 C        -2.645313         0.144066         0.313476
 O        -3.397261        -0.952798         0.992802
 C        -3.053564        -0.024194        -1.172047
 C        -4.495691         0.064442        -1.515133
 C        -4.061879         1.018759        -2.679673
 O        -2.636998         1.012905        -2.199707
 H         1.998478         0.492339         0.348868
 H         1.758040        -1.031971        -0.447087
 H         1.506254         0.674714        -1.240806
 H        -2.973138         1.022840         0.888740
 H        -3.341968        -1.692845         0.373272
 H        -2.414422        -0.890936        -1.406827
 H        -5.148245        -0.879860        -1.627728
 H        -5.028823         0.605521        -0.570051
 H        -3.962417         0.616838        -3.732650
 H        -4.579516         2.026159        -2.649351
