19
Iteration:  3329
 C         1.446825        -0.295146        -0.278638
 C         0.110400         0.021533         0.209521
 C        -1.039484         0.411619         0.241597
 C        -2.390394         0.780317        -0.085652
 O        -3.206098         0.966303         1.085087
 C        -3.210101        -0.251007        -0.893401
 C        -4.729977         0.274612        -1.432867
 C        -4.137145        -0.202381        -2.721102
 O        -2.820982        -0.463734        -2.217065
 H         1.430662         0.079652        -1.293930
 H         2.224419         0.131169         0.435263
 H         1.573462        -1.417645        -0.350323
 H        -2.380897         1.782187        -0.632582
 H        -3.527960         1.864062         1.211867
 H        -3.252745        -1.143832        -0.135556
 H        -5.543677        -0.288213        -1.026193
 H        -4.922707         1.326041        -1.388717
 H        -4.651243        -1.056567        -3.170457
 H        -4.202625         0.564591        -3.467024
