19
Iteration:  4131charge 0 multiplicity 1
 C         1.485604        -0.432358        -0.194058
 C         0.191581         0.188108         0.033648
 C        -0.985585         0.396835         0.051490
 C        -2.440372         0.827659        -0.239542
 O        -3.189838         1.634079         0.748429
 C        -3.392399        -0.318575        -0.652101
 C        -4.598287         0.346019        -1.406759
 C        -4.011439        -0.285523        -2.619498
 O        -3.065634        -1.026883        -1.891006
 H         2.304250         0.153159        -0.531946
 H         1.766382        -0.927435         0.737934
 H         1.370120        -1.290121        -0.899656
 H        -2.138384         1.468832        -1.033533
 H        -3.133599         1.090444         1.584279
 H        -3.388147        -0.935831         0.333619
 H        -5.597889        -0.109656        -1.278288
 H        -4.739838         1.432983        -1.411116
 H        -4.807099        -0.941872        -2.964629
 H        -3.634810         0.447276        -3.396278
