19
Iteration:  3786
 C         1.494353        -0.392948         0.454822
 C         0.178108         0.140004         0.326566
 C        -0.886975         0.478931        -0.114990
 C        -2.261278         0.887529        -0.533553
 O        -2.792534         1.344392         0.744988
 C        -3.175031        -0.251620        -1.033835
 C        -4.671090        -0.106141        -0.963259
 C        -4.625525        -0.355669        -2.542490
 O        -3.212328        -0.448152        -2.502441
 H         2.207520         0.375138         0.867000
 H         1.560067        -1.208814         1.171017
 H         1.793128        -0.669619        -0.518595
 H        -2.152515         1.785311        -1.192264
 H        -3.714796         1.079391         0.652807
 H        -2.786881        -1.170286        -0.526184
 H        -5.158168        -0.877100        -0.306546
 H        -5.156874         0.863518        -0.793113
 H        -5.238168        -1.211469        -2.932786
 H        -4.988346         0.671556        -2.909738
