19
Iteration:  4017
 C         1.347070        -0.478030         0.038266
 C         0.054475         0.125315        -0.089760
 C        -1.099734         0.502489        -0.263780
 C        -2.467762         0.975797        -0.261968
 O        -2.821234         1.443056         1.037716
 C        -3.435840        -0.153370        -0.675363
 C        -4.817712         0.148782        -1.457815
 C        -4.081933        -0.439808        -2.684342
 O        -2.865117        -0.822908        -1.886034
 H         1.499261        -1.044938        -0.939684
 H         2.165285         0.296368         0.189432
 H         1.547223        -1.157384         0.837138
 H        -2.504643         1.753570        -1.055831
 H        -2.209319         2.116160         1.264895
 H        -3.655537        -1.002476         0.021439
 H        -5.734456        -0.402532        -1.249061
 H        -5.099811         1.185744        -1.655900
 H        -4.379290        -1.372783        -3.141040
 H        -3.718114         0.298906        -3.417460
