19
Iteration:  2487charge 0 multiplicity 1
 C         1.533253        -0.343981         0.322821
 C         0.183375        -0.027328         0.085036
 C        -0.954974         0.351270        -0.053256
 C        -2.414538         0.712901        -0.118257
 O        -3.158166         0.457361         1.227183
 C        -3.172111        -0.136325        -1.124463
 C        -4.637068        -0.025940        -1.207282
 C        -4.439835         0.093112        -2.765700
 O        -2.932470         0.209240        -2.615505
 H         2.184806         0.100596         1.085510
 H         1.527182        -1.450877         0.539679
 H         2.052849        -0.256969        -0.695280
 H        -2.606564         1.862904        -0.283162
 H        -3.169279         1.317799         1.676027
 H        -2.793486        -1.177898        -1.079990
 H        -5.240844        -0.843905        -0.831445
 H        -5.015509         0.867066        -0.679829
 H        -4.836093        -0.786267        -3.303249
 H        -4.919241         0.985593        -3.361812
