19
Iteration:   382
 C         1.399755         0.176892        -0.272126
 C        -0.081092         0.168959        -0.194309
 C        -1.194929         0.016629         0.295727
 C        -2.697966         0.028317         0.267987
 O        -3.384533        -0.889189         1.112204
 C        -3.165633        -0.176898        -1.124116
 C        -4.570956         0.154646        -1.692624
 C        -3.816502         1.040263        -2.659636
 O        -2.606628         0.821234        -1.956315
 H         1.882936        -0.662815         0.144177
 H         1.783643         0.341730        -1.319800
 H         1.774924         1.059786         0.265936
 H        -2.962607         1.067725         0.409517
 H        -3.110544        -0.590697         2.002750
 H        -2.810556        -1.182859        -1.471814
 H        -5.147280        -0.754770        -2.071582
 H        -5.129628         0.881245        -0.955398
 H        -3.753886         0.656177        -3.708780
 H        -4.236014         2.107081        -2.694534
