19
Iteration:  2723
 C         1.391832        -0.305704         0.072478
 C         0.026451         0.029889        -0.124830
 C        -1.155011         0.323989        -0.133305
 C        -2.562443         0.626920        -0.054158
 O        -2.926905         0.758761         1.276442
 C        -3.312001        -0.320201        -0.901662
 C        -4.781797         0.073248        -1.372776
 C        -4.012735         0.383691        -2.776301
 O        -2.749820        -0.256983        -2.281905
 H         1.965189         0.437813        -0.580955
 H         1.724962        -0.053155         1.171216
 H         1.701876        -1.322998        -0.210065
 H        -2.782361         1.568025        -0.559554
 H        -3.827568         0.441200         1.443162
 H        -3.294766        -1.351485        -0.568433
 H        -5.494240        -0.783554        -1.343385
 H        -5.185478         0.841672        -0.660233
 H        -4.460715        -0.201105        -3.556887
 H        -3.729833         1.416226        -3.028270
