19
Iteration:   653
 C         1.499049        -0.273003         0.334476
 C         0.119744         0.003449         0.354621
 C        -1.004210         0.394275         0.124608
 C        -2.490806         0.455196        -0.048132
 O        -3.075098        -0.425112         0.973949
 C        -3.067732        -0.169332        -1.281294
 C        -4.623963        -0.160767        -1.489928
 C        -4.500549         0.914878        -2.511090
 O        -2.943998         0.744933        -2.532925
 H         2.001099         0.083399         1.196646
 H         1.764679        -1.361081         0.198433
 H         2.071580         0.097814        -0.617483
 H        -2.846432         1.476932         0.070661
 H        -2.857447        -1.339760         0.860453
 H        -2.539739        -1.043832        -1.680832
 H        -4.942571        -1.105739        -1.937838
 H        -5.208000         0.093691        -0.581034
 H        -4.682608         0.766632        -3.633126
 H        -4.727467         2.008099        -2.204016
