19
Iteration:  2350
 C         1.427330        -0.201668         0.020501
 C        -0.001096        -0.057309        -0.027878
 C        -1.161656         0.236320         0.000686
 C        -2.527941         0.645004        -0.012313
 O        -3.036302         0.471972         1.382592
 C        -3.254826        -0.333562        -1.030246
 C        -4.669046        -0.034284        -1.398733
 C        -4.078530         0.485608        -2.746408
 O        -2.737049         0.031191        -2.384830
 H         1.825705        -0.507788        -0.970290
 H         1.899964         0.728760         0.228359
 H         1.669929        -0.961140         0.724936
 H        -2.796642         1.680967        -0.468827
 H        -3.767395         1.115867         1.226790
 H        -3.018172        -1.360131        -0.754787
 H        -5.265390        -0.978549        -1.486836
 H        -5.336391         0.624436        -0.795211
 H        -4.435218        -0.108312        -3.734454
 H        -4.293076         1.591206        -3.060144
