19
Iteration:   927
 C         1.467419         0.064930         0.017069
 C        -0.005263         0.248625         0.056471
 C        -1.232621         0.266600        -0.042120
 C        -2.644413         0.328968         0.163670
 O        -3.069501        -0.469754         1.359345
 C        -3.370181        -0.317033        -1.122097
 C        -4.701034         0.388164        -1.564248
 C        -3.820641         0.987010        -2.720909
 O        -2.813363         0.017139        -2.409164
 H         2.055544         0.884893        -0.321127
 H         1.737424        -0.223142         1.112140
 H         1.738717        -0.974049        -0.492237
 H        -2.872211         1.426857         0.358264
 H        -2.267803        -0.924905         1.496179
 H        -3.312047        -1.376770        -1.114526
 H        -5.410422        -0.399031        -1.810693
 H        -5.270598         1.079435        -0.971479
 H        -4.275332         0.842329        -3.744812
 H        -3.413417         2.038239        -2.635112
