19
Iteration:  3966charge 0 multiplicity 1
 C         1.274771        -0.537206         0.182056
 C         0.052065         0.150944        -0.225122
 C        -0.939420         0.832664        -0.195978
 C        -2.354418         1.054515        -0.387618
 O        -2.949093         1.145430         0.934365
 C        -3.273472        -0.221370        -0.781958
 C        -4.617708         0.309340        -1.299219
 C        -4.260085        -0.527480        -2.539323
 O        -2.942754        -0.817435        -2.024643
 H         1.135542        -1.595231         0.152089
 H         2.194860        -0.197003        -0.284665
 H         1.373444        -0.314953         1.271595
 H        -2.395822         2.059416        -0.912252
 H        -3.225455         2.038900         1.023453
 H        -3.258192        -0.976184         0.022599
 H        -5.504233        -0.126716        -0.793516
 H        -4.712718         1.401627        -1.222351
 H        -4.845213        -1.445147        -2.720382
 H        -4.155569        -0.067506        -3.600739
