19
Iteration:  1362
 C         1.559072        -0.157290         0.418869
 C         0.105000        -0.027694         0.220404
 C        -1.018752         0.151661        -0.170284
 C        -2.426311         0.353852        -0.039619
 O        -3.040461        -0.104947         1.248288
 C        -3.217541        -0.307538        -1.296529
 C        -4.705487        -0.046140        -1.468831
 C        -4.359921         0.863643        -2.686131
 O        -2.959824         0.520511        -2.524620
 H         1.796353         0.880635         0.870931
 H         1.851337        -0.923161         1.028166
 H         1.926147        -0.431374        -0.621143
 H        -2.818974         1.484892        -0.260439
 H        -2.552739         0.350713         1.932419
 H        -3.020931        -1.398297        -1.307134
 H        -5.316435        -0.921064        -1.623280
 H        -5.150265         0.455815        -0.606766
 H        -4.680543         0.688879        -3.722479
 H        -4.353398         1.951730        -2.482748
