19
Iteration:  1028charge 0 multiplicity 1
 C         1.486622         0.223490        -0.116328
 C         0.061421        -0.014955         0.037412
 C        -1.153164        -0.055920         0.167318
 C        -2.659411         0.159319         0.118691
 O        -3.199024        -0.050032         1.435721
 C        -3.356778        -0.394384        -1.169876
 C        -4.704364         0.226618        -1.639370
 C        -3.968388         0.950293        -2.714524
 O        -2.674349         0.236199        -2.373989
 H         1.958460         0.365077         0.906156
 H         1.913548        -0.823982        -0.484156
 H         1.807152         1.075927        -0.706249
 H        -2.737570         1.239189         0.322697
 H        -2.878639        -1.005303         1.696042
 H        -3.324995        -1.462525        -1.168562
 H        -5.376853        -0.429111        -2.157587
 H        -5.115172         0.819930        -0.818999
 H        -4.139678         0.840356        -3.771751
 H        -3.698053         2.015068        -2.466328
