19
Iteration:  2948charge 0 multiplicity 1
 C         1.323613        -0.410372        -0.047039
 C         0.077189         0.242870        -0.103733
 C        -1.095367         0.589084        -0.080073
 C        -2.533782         0.819643        -0.012892
 O        -3.084247         0.552358         1.394952
 C        -3.222166        -0.146217        -0.926649
 C        -4.676844         0.235386        -1.463950
 C        -4.076695        -0.184573        -2.763212
 O        -2.715500        -0.240706        -2.294681
 H         1.255393        -1.082579        -0.918149
 H         2.171974         0.193130        -0.245960
 H         1.484399        -1.061884         0.914118
 H        -2.695061         1.922625        -0.114465
 H        -3.948380         0.964367         1.374520
 H        -3.128716        -1.089150        -0.318519
 H        -5.458439        -0.393234        -0.988074
 H        -4.851154         1.353535        -1.440375
 H        -4.392838        -1.219373        -2.979400
 H        -4.270235         0.443317        -3.580500
