19
Iteration:  3465charge 0 multiplicity 1
 C         1.156288        -0.481935        -0.301711
 C        -0.037297         0.356810        -0.277262
 C        -1.145255         0.827294         0.009336
 C        -2.616331         0.921635         0.026886
 O        -3.026172         0.914012         1.360990
 C        -3.365079        -0.166651        -0.804817
 C        -4.556126         0.305538        -1.672410
 C        -3.837760        -0.415020        -2.762506
 O        -2.699912        -0.679068        -1.893879
 H         1.802813        -0.394479         0.643931
 H         0.902392        -1.540594        -0.442502
 H         1.862392        -0.360219        -1.275839
 H        -2.957652         1.939123        -0.354389
 H        -2.832491         0.028508         1.804668
 H        -3.677857        -0.899179         0.021909
 H        -5.522124        -0.129338        -1.310638
 H        -4.513112         1.421916        -1.829474
 H        -4.245294        -1.333644        -3.131663
 H        -3.467874         0.111025        -3.658845
