19
Iteration:  3947
 C         1.312257        -0.577471         0.250211
 C         0.232015         0.249493        -0.208255
 C        -0.928345         0.684492        -0.274246
 C        -2.424612         0.967713        -0.303658
 O        -3.069607         1.251460         0.964961
 C        -3.206121        -0.208432        -0.810803
 C        -4.674620         0.238043        -1.267272
 C        -4.349252        -0.560810        -2.544230
 O        -2.892843        -0.706968        -2.144931
 H         1.027998        -1.643805         0.382591
 H         2.179090        -0.628592        -0.415194
 H         1.841306        -0.143085         1.213414
 H        -2.497153         1.868087        -1.027633
 H        -3.140171         2.178937         1.014215
 H        -3.152537        -0.971229        -0.057372
 H        -5.401848         0.036308        -0.465223
 H        -4.662203         1.319701        -1.460611
 H        -4.922372        -1.520506        -2.491606
 H        -4.493130         0.042893        -3.392468
