19
Iteration:   963
 C         1.420383         0.082226        -0.013650
 C         0.001175         0.208634        -0.086202
 C        -1.161262         0.400623         0.128922
 C        -2.611529         0.332370         0.107924
 O        -3.216784        -0.440763         1.220599
 C        -3.307760        -0.409971        -1.172731
 C        -4.619409         0.431581        -1.416346
 C        -3.747701         0.986260        -2.634681
 O        -2.859933        -0.087970        -2.436556
 H         1.890053         0.974704         0.444658
 H         1.558255        -0.653364         0.894452
 H         1.874700        -0.234469        -0.898355
 H        -3.183378         1.240811         0.015264
 H        -2.624210        -0.888770         1.793022
 H        -3.231109        -1.484779        -0.935997
 H        -5.455307        -0.106938        -1.837055
 H        -4.848306         1.066625        -0.559246
 H        -4.307811         0.990629        -3.515266
 H        -3.229963         1.909558        -2.381995
