19
Iteration:  3502
 C         1.318641        -0.378379        -0.321091
 C        -0.073729         0.215998        -0.270888
 C        -1.210589         0.573223        -0.139621
 C        -2.594730         0.843789         0.035697
 O        -3.199908         0.992609         1.345691
 C        -3.326741        -0.129695        -0.758800
 C        -4.505060         0.346116        -1.585595
 C        -3.839863        -0.381425        -2.753506
 O        -2.686719        -0.684195        -1.911218
 H         1.602679        -0.773362         0.747805
 H         1.324771        -1.304410        -1.015972
 H         1.938778         0.416658        -0.593335
 H        -2.769382         1.808964        -0.406538
 H        -2.503301         1.144199         2.026218
 H        -3.597015        -1.090209        -0.064188
 H        -5.480432         0.145300        -1.148653
 H        -4.564400         1.441060        -1.636098
 H        -4.331425        -1.332846        -3.116245
 H        -3.740359         0.296401        -3.672894
