19
Iteration:  2625
 C         1.603713        -0.397556         0.300622
 C         0.197053         0.208578         0.170689
 C        -0.994979         0.400980        -0.098984
 C        -2.450355         0.702591        -0.171158
 O        -3.202018         0.537318         1.064362
 C        -3.205629        -0.343994        -1.033779
 C        -4.666395         0.134082        -1.166385
 C        -4.389554         0.237628        -2.736581
 O        -2.936187        -0.090153        -2.536586
 H         1.647873        -1.464083        -0.067207
 H         2.135496         0.178743        -0.515539
 H         2.091569        -0.570991         1.293467
 H        -2.611511         1.778506        -0.666330
 H        -2.544978         0.651793         1.804145
 H        -2.856527        -1.366098        -0.792695
 H        -5.428141        -0.665056        -1.012690
 H        -5.082119         1.061386        -0.667835
 H        -4.811955        -0.502726        -3.365057
 H        -4.550163         1.203271        -3.107737
