19
Iteration:  4059charge 0 multiplicity 1
 C         1.399614        -0.358004        -0.106798
 C        -0.003662        -0.040351        -0.160247
 C        -1.167871         0.226149        -0.105464
 C        -2.446016         0.857462        -0.137439
 O        -2.919744         1.778000         0.881904
 C        -3.443082        -0.247082        -0.649556
 C        -4.742372         0.163194        -1.484769
 C        -3.931435        -0.329285        -2.622977
 O        -2.870472        -0.867867        -1.856096
 H         1.768701        -0.189357        -1.193774
 H         1.896563         0.330097         0.675225
 H         1.607178        -1.452992         0.113297
 H        -2.503598         1.549045        -1.089637
 H        -2.868190         1.375896         1.809537
 H        -3.544277        -0.926866         0.188462
 H        -5.596369        -0.432127        -1.140778
 H        -5.075268         1.212862        -1.494963
 H        -4.493574        -1.033179        -3.305376
 H        -3.617240         0.509015        -3.229436
