19
Iteration:     9
 C         1.504231        -0.041364         0.110893
 C         0.111657         0.035359         0.017814
 C        -1.116460         0.026016         0.108580
 C        -2.597726         0.029393         0.074057
 O        -3.092796        -0.989875         0.908460
 C        -3.156205        -0.134060        -1.353231
 C        -4.698729         0.112816        -1.488624
 C        -4.275600         1.294736        -2.374639
 O        -2.790209         1.094675        -2.169876
 H         1.608662        -0.491079         1.188695
 H         2.130369        -0.488055        -0.685788
 H         1.905998         0.859650         0.285998
 H        -3.073045         0.928952         0.393597
 H        -2.811129        -1.775145         0.470075
 H        -2.838272        -1.050407        -1.884620
 H        -5.100365        -0.627770        -2.159181
 H        -5.162538         0.203885        -0.407099
 H        -4.478275         1.208118        -3.429770
 H        -4.397607         2.436003        -2.194951
