19
Iteration:  2676charge 0 multiplicity 1
 C         1.487892        -0.363931         0.204846
 C         0.085781         0.077285        -0.000307
 C        -1.045492         0.488843        -0.194120
 C        -2.476507         0.735147        -0.120114
 O        -2.949961         0.564868         1.351945
 C        -3.291540        -0.290411        -1.057479
 C        -4.721761         0.043860        -1.323448
 C        -4.213173         0.364671        -2.760573
 O        -2.905464        -0.274430        -2.429864
 H         2.088475        -0.786678        -0.662339
 H         2.096775         0.497211         0.703220
 H         1.345168        -1.129974         0.901946
 H        -2.749312         1.738201        -0.239287
 H        -3.653622         1.316055         1.331811
 H        -3.176001        -1.293261        -0.623524
 H        -5.303304        -0.851279        -1.354685
 H        -5.273579         0.763127        -0.790661
 H        -4.664366        -0.320610        -3.567668
 H        -4.008064         1.511393        -2.911084
