19
Iteration:  4051
 C         1.384995        -0.404441        -0.055401
 C         0.031446         0.037229        -0.199940
 C        -1.185634         0.219641        -0.114164
 C        -2.464602         0.870210        -0.154150
 O        -2.904498         1.729516         0.877538
 C        -3.487538        -0.263314        -0.598545
 C        -4.768341         0.179284        -1.486781
 C        -3.953827        -0.350591        -2.665910
 O        -2.852988        -0.804313        -1.828265
 H         1.836327        -0.260724        -1.100393
 H         2.078993         0.342840         0.418957
 H         1.547846        -1.400206         0.242558
 H        -2.242605         1.601156        -0.977335
 H        -2.483062         1.415583         1.710454
 H        -3.577864        -1.073944         0.235792
 H        -5.571356        -0.549395        -1.362681
 H        -5.181416         1.188120        -1.439863
 H        -4.398612        -1.163591        -3.256134
 H        -3.658865         0.413420        -3.420225
