19
Iteration:  1304
 C         1.695002        -0.178828         0.390220
 C         0.210573        -0.110251         0.180735
 C        -0.986164         0.034274         0.167942
 C        -2.408459         0.397686        -0.082757
 O        -3.363104        -0.039464         0.937771
 C        -2.997106        -0.169594        -1.358888
 C        -4.601912        -0.060019        -1.254644
 C        -4.515104         0.675661        -2.580912
 O        -3.039277         0.718915        -2.592440
 H         2.271578         0.645419        -0.143904
 H         1.939254        -0.160303         1.486875
 H         2.065313        -1.040699        -0.087452
 H        -2.489257         1.542540         0.066319
 H        -2.922951        -0.434927         1.761949
 H        -2.610715        -1.211447        -1.572144
 H        -5.246514        -0.969752        -1.218070
 H        -4.877052         0.670403        -0.432935
 H        -4.789444         0.052792        -3.530730
 H        -4.767610         1.734495        -2.882102
