19
Iteration:  3912
 C         1.449689        -0.519371         0.223346
 C         0.144026         0.139817         0.106399
 C        -1.006745         0.511108        -0.061665
 C        -2.399631         0.941906        -0.367657
 O        -2.914657         1.428236         0.858452
 C        -3.272633        -0.170956        -0.886946
 C        -4.762820         0.051227        -1.248145
 C        -4.442399        -0.647694        -2.532028
 O        -2.944147        -0.454874        -2.284033
 H         1.452815        -1.389295         0.855235
 H         1.689000        -0.698543        -0.837413
 H         2.216001         0.234776         0.655007
 H        -2.373174         1.872102        -1.054293
 H        -2.134994         1.850989         1.147600
 H        -3.031584        -1.037105        -0.311934
 H        -5.340338        -0.481881        -0.467087
 H        -5.049385         1.106387        -1.270968
 H        -4.632621        -1.730173        -2.666696
 H        -4.661086        -0.193147        -3.516489
