19
Iteration:  4146charge 0 multiplicity 1
 C         1.448437        -0.475064        -0.109806
 C         0.158898         0.257534        -0.081143
 C        -1.010836         0.426593         0.056365
 C        -2.401897         0.777615        -0.173260
 O        -3.099310         1.596737         0.780358
 C        -3.419347        -0.277840        -0.681701
 C        -4.641140         0.329082        -1.373617
 C        -4.111860        -0.356224        -2.712715
 O        -2.985335        -0.983831        -1.888341
 H         2.296118         0.232347        -0.157205
 H         1.752144        -1.027131         0.782503
 H         1.333014        -1.144388        -0.976086
 H        -2.460858         1.420726        -1.055988
 H        -2.626615         1.638339         1.683854
 H        -3.848272        -0.987080        -0.041400
 H        -5.571518         0.031931        -0.861788
 H        -4.645692         1.428550        -1.355568
 H        -4.611579        -1.082383        -3.399127
 H        -3.624201         0.268471        -3.443343
