19
Iteration:  1439
 C         1.420494        -0.210764         0.190706
 C         0.014118         0.321928        -0.026722
 C        -1.186225         0.413181         0.036108
 C        -2.594209         0.407194         0.015915
 O        -3.039083        -0.198650         1.246300
 C        -3.287297        -0.397779        -1.161594
 C        -4.635147         0.141029        -1.387615
 C        -4.011652         0.916314        -2.653507
 O        -2.796311         0.128868        -2.481301
 H         1.612301        -0.307207         1.307716
 H         1.477951        -1.055478        -0.384072
 H         2.270203         0.443616        -0.269047
 H        -3.041799         1.453444        -0.089677
 H        -2.903010        -1.140174         1.186229
 H        -3.004403        -1.477536        -1.022721
 H        -5.428564        -0.581096        -1.566715
 H        -5.010504         0.852755        -0.674559
 H        -4.469594         0.517776        -3.601282
 H        -3.865783         2.073266        -2.756355
