19
Iteration:  1221charge 0 multiplicity 1
 C         1.380296        -0.471351         0.323279
 C         0.151526         0.100042        -0.034404
 C        -1.017486         0.400232        -0.095296
 C        -2.517275         0.535556         0.074806
 O        -3.043853        -0.185022         1.324600
 C        -3.109370        -0.078354        -1.228187
 C        -4.661676        -0.206661        -1.540490
 C        -4.279814         0.491725        -2.860238
 O        -3.004728         0.904682        -2.295662
 H         2.034556        -0.883774        -0.511827
 H         2.116353         0.244220         0.750616
 H         1.296590        -1.227653         1.205121
 H        -2.781321         1.512229         0.303501
 H        -2.603384        -1.053478         1.424889
 H        -2.563350        -1.034273        -1.364798
 H        -5.189944        -1.122371        -1.576383
 H        -5.159970         0.536111        -0.913343
 H        -3.949348        -0.265253        -3.683498
 H        -4.873830         1.312681        -3.239897
