19
Iteration:  2802
 C         1.498307        -0.253308        -0.249576
 C         0.080836         0.032513        -0.004112
 C        -1.102669         0.269254         0.163933
 C        -2.489230         0.732189         0.038686
 O        -3.371421         0.672975         1.271827
 C        -3.231016        -0.252141        -0.893437
 C        -4.590093         0.329252        -1.410239
 C        -3.957207         0.174248        -2.724620
 O        -2.793856        -0.450229        -2.313400
 H         2.120821         0.365992         0.370977
 H         1.695712        -1.329589        -0.458578
 H         1.739084         0.205831        -1.289782
 H        -2.553926         1.639089        -0.469120
 H        -4.026704         1.423179         1.251929
 H        -3.351744        -1.239856        -0.437926
 H        -5.421616        -0.409774        -1.166754
 H        -4.936916         1.348882        -0.965865
 H        -4.479180        -0.363293        -3.466412
 H        -3.737521         1.157743        -3.205215
