19
Iteration:  1695
 C         1.337215        -0.189628        -0.062289
 C        -0.115233         0.028419        -0.086312
 C        -1.262944         0.483284         0.100613
 C        -2.672050         0.507740         0.256885
 O        -2.939539        -0.259932         1.447627
 C        -3.308543        -0.125658        -1.073195
 C        -4.674377         0.143297        -1.653915
 C        -3.939986         0.561174        -2.933380
 O        -2.638458         0.384144        -2.219599
 H         1.944948         0.462227        -0.633202
 H         1.551785        -0.333721         1.002497
 H         1.554916        -1.170604        -0.414431
 H        -3.071121         1.603055         0.248789
 H        -2.635667        -1.150428         1.254198
 H        -3.087575        -1.255530        -1.014229
 H        -5.424306        -0.656475        -1.758659
 H        -5.147845         1.026919        -1.201349
 H        -3.953736        -0.232988        -3.689656
 H        -3.938235         1.581954        -3.474685
