19
Iteration:   690charge 0 multiplicity 1
 C         1.435819        -0.395265         0.261423
 C         0.095165         0.173804         0.137136
 C        -1.117235         0.319392         0.117174
 C        -2.565433         0.384042         0.044141
 O        -3.013367        -0.361688         1.230513
 C        -3.030576        -0.164567        -1.351417
 C        -4.564138        -0.251431        -1.638076
 C        -4.412633         0.877204        -2.664202
 O        -2.939039         0.891342        -2.394596
 H         1.577179        -0.645144         1.360095
 H         1.447020        -1.390521        -0.302471
 H         2.155815         0.286125        -0.028800
 H        -2.887815         1.445890         0.121857
 H        -2.116294        -0.792429         1.374471
 H        -2.395888        -0.988414        -1.471180
 H        -4.983929        -1.186877        -2.067243
 H        -5.112284        -0.036530        -0.722923
 H        -4.584579         0.669313        -3.672415
 H        -5.045555         1.623598        -2.311235
