19
Iteration:  4969
 C         1.408634        -0.383197         0.421443
 C         0.117494         0.181794         0.090734
 C        -0.906398         0.556742        -0.447929
 C        -2.251189         0.972026        -0.643687
 O        -2.714157         1.463450         0.641808
 C        -3.256569        -0.164415        -0.801968
 C        -4.713226         0.297900        -1.162575
 C        -4.545162        -0.613822        -2.408283
 O        -3.233720        -0.985437        -1.957148
 H         2.290263         0.246395         0.378388
 H         1.402349        -0.927777         1.356757
 H         1.770281        -1.309441        -0.129543
 H        -2.218395         1.734913        -1.431781
 H        -2.344272         2.373402         0.802538
 H        -2.915680        -0.816434        -0.003070
 H        -5.541245        -0.054426        -0.567388
 H        -4.945946         1.342437        -1.458901
 H        -5.171688        -1.530796        -2.541412
 H        -4.494216        -0.107798        -3.411279
