19
Iteration:  3008
 C         1.479343        -0.333467        -0.014702
 C         0.079858         0.077386         0.151620
 C        -1.101267         0.390398        -0.031442
 C        -2.512797         0.801938        -0.082460
 O        -3.193658         0.837440         1.171661
 C        -3.195831        -0.197496        -0.948809
 C        -4.589371         0.072424        -1.288958
 C        -4.215945        -0.180213        -2.735583
 O        -2.858107        -0.124197        -2.410695
 H         1.874597         0.227847        -0.962543
 H         2.071111         0.018230         0.934395
 H         1.602715        -1.421525        -0.128944
 H        -2.555886         1.776293        -0.506746
 H        -2.512918         0.468708         1.710847
 H        -2.847620        -1.218647        -0.634823
 H        -5.285824        -0.540512        -0.740768
 H        -5.030317         1.047452        -1.206276
 H        -4.450689        -1.139184        -3.162660
 H        -4.461935         0.572480        -3.542427
