19
Iteration:  2230charge 0 multiplicity 1
 C         1.440313        -0.161259        -0.265890
 C         0.017647         0.043555        -0.078782
 C        -1.182829         0.290028         0.081340
 C        -2.630978         0.506138         0.242009
 O        -3.127300         0.161103         1.539235
 C        -3.326572        -0.176790        -0.994200
 C        -4.647292         0.412861        -1.585840
 C        -3.920768         0.358846        -2.937787
 O        -2.667806        -0.120055        -2.238760
 H         1.929982        -0.730873         0.625478
 H         1.768742        -0.498886        -1.278248
 H         1.972774         0.856679        -0.046053
 H        -2.829156         1.590501         0.116960
 H        -4.033754         0.469054         1.584173
 H        -3.607733        -1.214106        -0.722607
 H        -5.612167        -0.169202        -1.716061
 H        -4.979449         1.453772        -1.276898
 H        -4.286008        -0.270883        -3.673966
 H        -3.676741         1.320088        -3.400152
