19
Iteration:  4162charge 0 multiplicity 1
 C         1.442506        -0.448479        -0.038309
 C         0.086896         0.177366        -0.123281
 C        -1.066857         0.451898         0.043401
 C        -2.464785         0.844551        -0.285805
 O        -2.967758         1.552101         0.906945
 C        -3.451630        -0.296794        -0.694717
 C        -4.693079         0.297627        -1.432425
 C        -4.094519        -0.414465        -2.639938
 O        -2.954735        -0.899583        -1.935494
 H         2.314276         0.313416         0.056992
 H         1.317546        -1.156254         0.834255
 H         1.723457        -1.007877        -0.949473
 H        -2.364916         1.607369        -1.195107
 H        -2.139094         1.890785         1.285089
 H        -3.397226        -1.062613         0.146663
 H        -5.695590        -0.047486        -1.147334
 H        -4.613314         1.398318        -1.492140
 H        -4.707512        -1.246654        -3.000611
 H        -3.876442         0.295634        -3.488989
