19
Iteration:   536charge 0 multiplicity 1
 C         1.468699         0.180562         0.374743
 C         0.068865        -0.047612         0.098625
 C        -1.125826         0.016474        -0.087979
 C        -2.578889         0.057665        -0.004606
 O        -2.974036        -0.683503         1.124841
 C        -3.278363        -0.233781        -1.361574
 C        -4.716544         0.199418        -1.475417
 C        -4.183730         1.163760        -2.602346
 O        -2.806334         0.642081        -2.399385
 H         1.869274         0.783128        -0.389567
 H         1.635415         0.696092         1.387393
 H         2.052327        -0.732769         0.474039
 H        -2.851612         1.110854         0.275804
 H        -2.433302        -0.461652         1.828649
 H        -3.247953        -1.287201        -1.634552
 H        -5.445646        -0.630080        -1.692242
 H        -5.123294         0.836648        -0.618235
 H        -4.542291         0.860633        -3.555773
 H        -4.364597         2.187581        -2.462229
