19
Iteration:  2703
 C         1.458194        -0.292921         0.172291
 C         0.029923        -0.007559        -0.187095
 C        -1.117635         0.367488        -0.151511
 C        -2.516142         0.767049        -0.177619
 O        -2.913985         0.624081         1.282230
 C        -3.326445        -0.314514        -0.905202
 C        -4.733724         0.034680        -1.403856
 C        -4.079223         0.356686        -2.692048
 O        -2.843300        -0.220997        -2.272725
 H         2.126396        -0.059744        -0.667159
 H         1.781267         0.246482         1.121995
 H         1.527465        -1.433485         0.490451
 H        -2.759062         1.875055        -0.407319
 H        -3.932045         0.689280         1.192207
 H        -3.088440        -1.262929        -0.357673
 H        -5.450952        -0.839536        -1.461264
 H        -5.354662         0.937789        -1.031988
 H        -4.393074        -0.159358        -3.546121
 H        -3.998784         1.385092        -2.814864
