19
Iteration:  2294
 C         1.585456        -0.138781        -0.318625
 C         0.119981         0.079898         0.171691
 C        -1.086257         0.131158         0.206019
 C        -2.555027         0.529654         0.098929
 O        -3.382859         0.354409         1.238839
 C        -3.224878        -0.315458        -0.995863
 C        -4.621940         0.268974        -1.393559
 C        -4.013140         0.483580        -2.766573
 O        -2.781980        -0.134997        -2.320942
 H         1.721789        -1.174122        -0.560761
 H         1.900531         0.600290        -0.990616
 H         2.173706         0.015103         0.525500
 H        -2.635573         1.618186        -0.322124
 H        -4.126879         0.946009         0.904393
 H        -3.196001        -1.392609        -0.757729
 H        -5.450574        -0.441569        -1.357271
 H        -4.876091         1.258325        -0.958866
 H        -4.387580        -0.267993        -3.563374
 H        -4.025871         1.605884        -3.082336
