19
Iteration:  2404
 C         1.340232        -0.489620         0.213148
 C         0.136956         0.236414        -0.035734
 C        -1.075824         0.489371        -0.032059
 C        -2.516519         0.695420        -0.028252
 O        -2.882461         0.447476         1.289738
 C        -3.208935        -0.256807        -1.098978
 C        -4.706724        -0.084788        -1.346940
 C        -4.254870         0.364901        -2.762664
 O        -2.840076         0.031403        -2.463604
 H         2.063179         0.128052        -0.365824
 H         1.822448        -0.236195         1.222677
 H         1.308376        -1.548811         0.110029
 H        -2.938232         1.632813        -0.302663
 H        -3.816416         0.213482         1.245839
 H        -2.886582        -1.277621        -0.877259
 H        -5.164308        -1.090629        -1.404986
 H        -5.377275         0.602405        -0.793569
 H        -4.800625        -0.251938        -3.596268
 H        -4.296489         1.479880        -2.830456
