19
Iteration:  3996charge 0 multiplicity 1
 C         1.342028        -0.495110         0.096559
 C        -0.038002         0.072272        -0.034479
 C        -1.029406         0.678155        -0.401040
 C        -2.469708         1.107061        -0.320034
 O        -2.874237         1.308456         1.122690
 C        -3.309647        -0.127414        -0.774212
 C        -4.606192         0.219874        -1.419019
 C        -4.144682        -0.522111        -2.660651
 O        -2.988420        -0.910778        -1.975176
 H         1.432391        -1.368926        -0.579383
 H         2.217434         0.166479        -0.089307
 H         1.547236        -0.847578         1.043095
 H        -2.510339         2.044905        -0.737339
 H        -2.771030         2.326563         1.175707
 H        -3.357244        -0.846359         0.128061
 H        -5.271750        -0.437488        -0.867288
 H        -4.914135         1.260115        -1.326849
 H        -4.760771        -1.336989        -3.015273
 H        -3.831894         0.243736        -3.403874
