19
Iteration:  4978charge 0 multiplicity 1
 C         1.406090        -0.438800         0.538126
 C         0.205938         0.206803        -0.007338
 C        -0.845779         0.531302        -0.501020
 C        -2.226673         1.003864        -0.703250
 O        -2.700153         1.415195         0.683611
 C        -3.319028        -0.162673        -0.822967
 C        -4.799241         0.283007        -1.197362
 C        -4.563386        -0.629701        -2.388399
 O        -3.185743        -0.968600        -1.949442
 H         2.093764         0.429531         0.601916
 H         1.375457        -0.827956         1.523970
 H         1.735173        -1.037235        -0.353491
 H        -2.527843         1.717259        -1.471008
 H        -2.544049         2.403406         0.667389
 H        -3.299218        -0.624190         0.269493
 H        -5.416426         0.040055        -0.338864
 H        -4.823150         1.348064        -1.335274
 H        -5.252003        -1.428809        -2.569528
 H        -4.545764         0.063326        -3.237736
