19
Iteration:  3332
 C         1.442854        -0.285466        -0.267054
 C         0.110003         0.014787         0.169116
 C        -1.046622         0.406983         0.268788
 C        -2.395963         0.795735        -0.104877
 O        -3.206876         0.955303         1.090373
 C        -3.246533        -0.224413        -0.891880
 C        -4.728552         0.270948        -1.440714
 C        -4.128997        -0.222469        -2.730141
 O        -2.805282        -0.463108        -2.200095
 H         1.458704         0.070349        -1.282938
 H         2.210191         0.067484         0.388982
 H         1.583471        -1.457747        -0.453731
 H        -2.323498         1.768324        -0.607424
 H        -3.509666         1.908197         1.214799
 H        -3.251676        -1.115769        -0.194365
 H        -5.556137        -0.293201        -1.018871
 H        -4.897903         1.344198        -1.320501
 H        -4.548417        -1.120604        -3.063651
 H        -4.131720         0.637566        -3.401613
