19
Iteration:  4734
 C         1.203539        -0.553925        -0.048608
 C        -0.088299        -0.001358         0.098537
 C        -1.055909         0.644292        -0.375011
 C        -2.426894         1.112374        -0.366895
 O        -2.665398         1.791297         0.942357
 C        -3.380413        -0.104929        -0.708024
 C        -4.757104         0.123784        -1.515069
 C        -4.166669        -0.806555        -2.520466
 O        -2.829526        -0.849924        -1.805081
 H         1.052744        -1.619723         0.338960
 H         1.640780        -0.472456        -1.043641
 H         1.951575         0.089449         0.484106
 H        -2.497561         1.914217        -1.112880
 H        -2.593570         1.037708         1.532339
 H        -3.663935        -0.703498         0.170219
 H        -5.621650        -0.308698        -0.998512
 H        -4.974806         1.189736        -1.725663
 H        -4.520841        -1.825522        -2.513129
 H        -3.871239        -0.542049        -3.563323
