19
Iteration:  4890charge 0 multiplicity 1
 C         1.517852        -0.480262         0.029262
 C         0.147218        -0.070984         0.014752
 C        -0.997426         0.250178         0.070789
 C        -2.324002         1.014179        -0.372685
 O        -2.896546         1.964508         0.425383
 C        -3.392672        -0.173595        -0.654275
 C        -4.828660         0.083094        -1.173640
 C        -4.313034        -0.639806        -2.452021
 O        -2.992600        -0.747971        -1.969907
 H         2.215119        -0.183153        -0.821694
 H         2.093682         0.019235         0.866334
 H         1.635934        -1.651628         0.133148
 H        -1.857664         1.535755        -1.224301
 H        -3.876424         1.783303         0.632412
 H        -3.245440        -1.045468         0.039237
 H        -5.591261        -0.420761        -0.535855
 H        -4.983020         1.107069        -1.332950
 H        -4.695728        -1.639813        -2.717761
 H        -4.268032         0.021245        -3.344911
