19
Iteration:   744charge 0 multiplicity 1
 C         1.467100        -0.319154         0.119029
 C         0.048672        -0.060974        -0.008233
 C        -1.083397         0.408669         0.085248
 C        -2.567026         0.421393         0.161265
 O        -3.215221        -0.407232         1.109153
 C        -3.041690        -0.062322        -1.205404
 C        -4.588739        -0.246858        -1.506134
 C        -4.204019         0.706587        -2.762007
 O        -2.884108         0.951918        -2.238225
 H         1.643544        -1.321439         0.617917
 H         1.948178        -0.361315        -0.942172
 H         2.031105         0.398290         0.616344
 H        -2.946139         1.460540         0.247886
 H        -3.015872        -0.013662         2.035101
 H        -2.408802        -0.924394        -1.517100
 H        -4.838270        -1.281482        -1.787158
 H        -5.258851         0.147043        -0.751041
 H        -4.110745         0.224211        -3.757586
 H        -4.921545         1.560615        -2.770674
