19
Iteration:   306charge 0 multiplicity 1
 C         1.342499         0.080331        -0.355491
 C         0.044699        -0.052500         0.209425
 C        -1.137165         0.145074         0.476224
 C        -2.641266         0.141840         0.316588
 O        -3.335511        -0.930998         1.008879
 C        -3.006549        -0.010826        -1.177407
 C        -4.539459         0.099450        -1.560855
 C        -4.050361         1.000755        -2.727797
 O        -2.666535         0.969142        -2.131728
 H         2.120534         0.305687         0.372054
 H         1.734503        -0.858027        -0.877229
 H         1.340297         0.770861        -1.166596
 H        -3.156140         1.129817         0.519822
 H        -3.721239        -1.549185         0.336578
 H        -2.812358        -1.033087        -1.564765
 H        -4.863560        -0.934857        -1.867346
 H        -5.234173         0.710648        -0.987633
 H        -4.205232         0.667280        -3.763000
 H        -4.403765         2.085147        -2.647308
