19
Iteration:   241charge 0 multiplicity 1
 C         1.544266        -0.063603         0.014858
 C         0.065344         0.054913         0.021417
 C        -1.157880         0.115217         0.138791
 C        -2.640685         0.068722         0.150382
 O        -3.134035        -0.986560         1.021108
 C        -3.103535        -0.164955        -1.277064
 C        -4.685794         0.180524        -1.609025
 C        -4.163072         1.107778        -2.637398
 O        -2.837737         1.055255        -2.056668
 H         2.035349         1.013052         0.204016
 H         1.791856        -0.792552         0.873722
 H         1.955646        -0.469385        -0.914878
 H        -3.059679         1.088452         0.506624
 H        -3.093236        -0.646114         1.874904
 H        -2.535914        -0.968044        -1.802459
 H        -5.181103        -0.710263        -2.053993
 H        -5.138444         0.675275        -0.848376
 H        -4.091645         0.711097        -3.627569
 H        -4.532374         2.165297        -2.730056
