19
Iteration:  2758charge 0 multiplicity 1
 C         1.497001        -0.300644        -0.118730
 C         0.069900         0.062512         0.039698
 C        -1.126064         0.311212         0.064685
 C        -2.568429         0.617078        -0.004409
 O        -3.056994         0.811620         1.325320
 C        -3.368961        -0.341776        -0.945939
 C        -4.735544         0.165772        -1.384879
 C        -3.988476         0.342464        -2.818460
 O        -2.779532        -0.373602        -2.328566
 H         1.970312         0.681740        -0.220857
 H         2.037687        -0.937786         0.664739
 H         1.702002        -0.731715        -1.215519
 H        -2.678283         1.646555        -0.335899
 H        -3.982919         0.489486         1.308856
 H        -3.245619        -1.294582        -0.408807
 H        -5.533678        -0.650868        -1.397410
 H        -5.168665         1.159838        -0.964907
 H        -4.413625        -0.183949        -3.622369
 H        -3.739599         1.292330        -3.196378
