19
Iteration:  2052
 C         1.528613        -0.126368        -0.024794
 C         0.079000        -0.171013         0.066693
 C        -1.164453         0.035100         0.045725
 C        -2.507053         0.553779         0.089273
 O        -3.283954         0.406066         1.339566
 C        -3.193369        -0.215029        -1.091334
 C        -4.644263         0.070053        -1.396369
 C        -4.154161         0.304153        -2.824984
 O        -2.735788         0.367732        -2.415924
 H         1.983378         0.671269        -0.705700
 H         1.656773         0.437943         0.917017
 H         2.095702        -1.064042        -0.055998
 H        -2.447240         1.563627        -0.106133
 H        -3.312247        -0.497721         1.599697
 H        -2.813775        -1.223561        -1.173136
 H        -5.392259        -0.775973        -1.483539
 H        -4.979241         0.976726        -0.843325
 H        -4.403630        -0.406281        -3.588240
 H        -4.496426         1.296374        -3.172889
