19
Iteration:  4219
 C         1.341970        -0.441317         0.278161
 C        -0.010489        -0.083577        -0.166316
 C        -1.014966         0.526535        -0.348857
 C        -2.342934         1.052612        -0.346525
 O        -2.714573         1.345548         0.959928
 C        -3.422130         0.004176        -0.767406
 C        -4.802334         0.150776        -1.407613
 C        -4.264258        -0.666171        -2.603654
 O        -2.913625        -0.619340        -1.969649
 H         1.492357         0.190683         1.130368
 H         1.542013        -1.450846         0.634573
 H         2.028204        -0.147209        -0.611120
 H        -2.445086         2.041560        -0.889924
 H        -2.559126         2.289112         1.210019
 H        -3.276887        -0.788186         0.003108
 H        -5.507466        -0.530406        -0.898894
 H        -5.208491         1.165125        -1.365738
 H        -4.607045        -1.693651        -2.477132
 H        -4.307647        -0.442983        -3.707228
