19
Iteration:  2640charge 0 multiplicity 1
 C         1.472657        -0.367288         0.205740
 C         0.170230         0.202130         0.201066
 C        -0.989847         0.453417        -0.050635
 C        -2.401881         0.649416        -0.209828
 O        -3.089333         0.501418         1.135598
 C        -3.203637        -0.290114        -1.115853
 C        -4.692173         0.082464        -1.264700
 C        -4.313605         0.279410        -2.680663
 O        -2.967120        -0.154890        -2.475793
 H         1.421436        -1.304997        -0.315619
 H         2.295439         0.200251        -0.070407
 H         1.686293        -0.587689         1.328107
 H        -2.651374         1.635754        -0.555591
 H        -2.669933         1.302568         1.605690
 H        -3.217287        -1.346864        -0.758333
 H        -5.379204        -0.728671        -0.974179
 H        -4.883187         0.979681        -0.650359
 H        -4.921173        -0.351224        -3.423975
 H        -4.368195         1.303521        -3.242049
