19
Iteration:  4959
 C         1.449732        -0.408185         0.352463
 C         0.120721         0.116681         0.137472
 C        -0.930583         0.546909        -0.380881
 C        -2.282001         0.997598        -0.572957
 O        -2.759172         1.566948         0.610083
 C        -3.241283        -0.185669        -0.795068
 C        -4.675218         0.264572        -1.145508
 C        -4.513510        -0.590507        -2.435562
 O        -3.209383        -1.035452        -2.027615
 H         2.237405         0.341503         0.241697
 H         1.402580        -0.583320         1.465734
 H         1.385436        -1.235892        -0.424240
 H        -2.417267         1.727409        -1.416242
 H        -2.079912         2.202642         0.887862
 H        -3.338139        -0.776241         0.079654
 H        -5.464334        -0.065813        -0.475374
 H        -4.692884         1.405651        -1.260170
 H        -5.238034        -1.472977        -2.334435
 H        -4.520224        -0.182745        -3.485309
