19
Iteration:  2437
 C         1.368165        -0.530792         0.221887
 C         0.124500         0.215902         0.159435
 C        -1.001360         0.649019        -0.064874
 C        -2.465864         0.723235        -0.078741
 O        -2.985608         0.348334         1.192425
 C        -3.080870        -0.255169        -1.140988
 C        -4.618987        -0.003852        -1.240935
 C        -4.359387         0.285852        -2.702936
 O        -2.930108         0.020415        -2.554121
 H         2.164931         0.226713         0.021954
 H         1.482973        -0.991839         1.248704
 H         1.624281        -1.202685        -0.536991
 H        -2.875980         1.677121        -0.190206
 H        -3.936428         0.711980         1.151521
 H        -2.767067        -1.293300        -0.967300
 H        -5.118571        -0.956140        -1.021912
 H        -5.127548         0.817731        -0.717731
 H        -4.896322        -0.411498        -3.429281
 H        -4.571211         1.280702        -3.081156
