19
Iteration:  3444
 C         1.154010        -0.492218        -0.337464
 C        -0.058498         0.268509        -0.060393
 C        -1.116086         0.841616        -0.085975
 C        -2.554906         1.050132         0.063692
 O        -2.970358         0.908207         1.502050
 C        -3.400556        -0.033821        -0.776972
 C        -4.671082         0.237400        -1.753914
 C        -3.826819        -0.466231        -2.856375
 O        -2.676770        -0.725750        -1.986111
 H         2.039211        -0.033887         0.251314
 H         0.995315        -1.576977        -0.237715
 H         1.421046        -0.359572        -1.488138
 H        -2.784578         2.114851        -0.163018
 H        -3.023713        -0.050292         1.681716
 H        -3.635024        -0.879266         0.062738
 H        -5.539126        -0.330523        -1.327186
 H        -4.790410         1.353887        -1.829433
 H        -4.147108        -1.423587        -3.179162
 H        -3.575262         0.173855        -3.782126
