19
Iteration:  4330
 C         1.508359        -0.435450         0.301359
 C         0.127149        -0.062719         0.017015
 C        -0.983668         0.494789        -0.058212
 C        -2.319519         1.046079        -0.457524
 O        -3.004628         1.694304         0.639185
 C        -3.126705        -0.232157        -0.859975
 C        -4.645599         0.034827        -1.079298
 C        -4.531494        -0.591327        -2.401327
 O        -3.050450        -0.648105        -2.317669
 H         1.502461        -1.414657         0.784380
 H         2.080404        -0.736508        -0.588525
 H         2.056379         0.305392         1.054865
 H        -2.235296         1.773491        -1.330298
 H        -2.991546         1.124655         1.404265
 H        -2.827253        -1.088797        -0.358802
 H        -5.310694        -0.490108        -0.390477
 H        -4.816863         1.109281        -1.062683
 H        -5.035193        -1.517062        -2.437949
 H        -4.973888        -0.068167        -3.253006
