19
Iteration:  2795charge 0 multiplicity 1
 C         1.513606        -0.283611        -0.260395
 C         0.089033         0.057358         0.006962
 C        -1.114534         0.260297         0.202760
 C        -2.502816         0.755742         0.047801
 O        -3.312850         0.665672         1.221216
 C        -3.280782        -0.223924        -0.905600
 C        -4.648581         0.282780        -1.327069
 C        -3.945494         0.221605        -2.802294
 O        -2.789920        -0.467859        -2.282554
 H         2.094113         0.452225         0.364399
 H         1.933660        -1.289330        -0.208544
 H         1.662123         0.134574        -1.342802
 H        -2.319924         1.776485        -0.471534
 H        -4.077087         1.206615         1.132406
 H        -3.347749        -1.243773        -0.444121
 H        -5.498504        -0.378167        -1.267923
 H        -4.994580         1.268400        -0.998162
 H        -4.437888        -0.403175        -3.599318
 H        -3.784647         1.214449        -3.182291
