19
Iteration:  1316charge 0 multiplicity 1
 C         1.620022        -0.168312         0.374304
 C         0.238157        -0.047517         0.149447
 C        -0.972664         0.016068         0.202061
 C        -2.352566         0.366803        -0.089060
 O        -3.317756        -0.048921         0.865555
 C        -3.072009        -0.198022        -1.324943
 C        -4.599811        -0.008415        -1.305173
 C        -4.502443         0.730564        -2.637827
 O        -3.031061         0.623985        -2.456121
 H         2.169525         0.827921         0.169273
 H         1.727415        -0.345194         1.436310
 H         2.041733        -1.030548        -0.088246
 H        -2.353657         1.508759        -0.387667
 H        -2.806980        -0.149566         1.631338
 H        -2.586508        -1.191176        -1.527487
 H        -5.243501        -0.899272        -1.247483
 H        -4.897298         0.620522        -0.417061
 H        -4.872010         0.219450        -3.582953
 H        -5.001837         1.706289        -2.448895
