19
Iteration:   124charge 0 multiplicity 1
 C         1.564914        -0.067962         0.460968
 C         0.209001         0.059390         0.198760
 C        -0.975737        -0.063498         0.005154
 C        -2.413772         0.173796        -0.087304
 O        -3.115668        -0.886689         0.747608
 C        -3.176101        -0.150757        -1.429374
 C        -4.700176         0.157896        -1.349585
 C        -4.424072         1.353302        -2.253534
 O        -3.004812         0.867621        -2.499639
 H         1.990274        -0.479493        -0.359287
 H         1.928245         0.912410         0.611863
 H         1.838551        -0.706655         1.291187
 H        -2.683853         1.132592         0.316161
 H        -2.498391        -1.588768         0.750580
 H        -2.850910        -1.157161        -1.696989
 H        -5.333867        -0.628161        -1.771884
 H        -4.840805         0.430753        -0.337725
 H        -5.151207         1.363917        -3.125542
 H        -4.573141         2.231342        -1.678752
