19
Iteration:    55
 C         1.508077        -0.068303         0.430255
 C         0.099771         0.027331        -0.003457
 C        -1.102194         0.077517        -0.252524
 C        -2.530307         0.081086        -0.045264
 O        -2.929167        -0.986346         0.927415
 C        -3.222726        -0.155693        -1.382914
 C        -4.727296         0.077400        -1.454937
 C        -4.306696         1.355842        -2.213217
 O        -2.835498         0.991887        -2.287756
 H         1.786773        -1.147312         0.652246
 H         2.129163         0.347455        -0.360858
 H         1.745741         0.421870         1.254494
 H        -2.801451         1.024397         0.367565
 H        -3.879891        -0.962641         1.055890
 H        -2.901878        -1.120935        -1.785523
 H        -5.152556        -0.540990        -2.246804
 H        -5.254171         0.201103        -0.496415
 H        -4.675179         1.285792        -3.214277
 H        -4.465139         2.409629        -1.877665
