19
Iteration:  3180charge 0 multiplicity 1
 C         1.439320        -0.272580         0.584806
 C         0.196183         0.200601         0.028535
 C        -0.899670         0.475141        -0.411962
 C        -2.282326         0.717987        -0.261305
 O        -2.800338         0.817509         1.041329
 C        -3.253747        -0.363619        -0.976534
 C        -4.766852        -0.034011        -1.155127
 C        -4.424402         0.170639        -2.645234
 O        -3.141172        -0.389310        -2.488965
 H         1.302339        -0.978844         1.346776
 H         2.094759        -0.754047        -0.083833
 H         1.913410         0.579837         0.981849
 H        -2.628262         1.621717        -0.844641
 H        -3.585964         1.436208         1.015389
 H        -3.043000        -1.291671        -0.548371
 H        -5.343986        -0.950359        -1.058325
 H        -5.286814         0.863216        -0.724629
 H        -5.052292        -0.595500        -3.297494
 H        -4.485872         1.249027        -3.068073
