19
Iteration:  4463charge 0 multiplicity 1
 C         1.440598        -0.286926         0.573496
 C         0.238272         0.241424        -0.054794
 C        -0.918788         0.467620        -0.420221
 C        -2.299061         0.793221        -0.593393
 O        -2.881844         1.416586         0.518219
 C        -3.302679        -0.357621        -0.765092
 C        -4.673695         0.183165        -0.971438
 C        -4.471516        -0.295749        -2.480324
 O        -3.168001        -0.868620        -2.091023
 H         2.055127        -0.548952        -0.248750
 H         1.920390         0.393222         1.316138
 H         1.285745        -1.377148         0.934112
 H        -2.364821         1.434207        -1.477631
 H        -2.030166         1.561231         0.960622
 H        -3.218783        -0.993348         0.062053
 H        -5.598716        -0.089184        -0.457284
 H        -4.777355         1.287953        -0.925527
 H        -5.262189        -0.998533        -2.619200
 H        -4.460393         0.384823        -3.329191
