19
Iteration:   468charge 0 multiplicity 1
 C         1.504163         0.155366        -0.007899
 C         0.069335         0.276180         0.249552
 C        -1.153746         0.140397         0.192013
 C        -2.630036         0.074146         0.205595
 O        -3.216305        -0.848076         1.043449
 C        -3.267345        -0.217597        -1.201478
 C        -4.684753         0.313695        -1.498755
 C        -4.017685         1.115899        -2.649429
 O        -2.700652         0.492544        -2.394077
 H         1.468654        -0.371024        -0.910090
 H         2.120144         1.140699        -0.106255
 H         2.042024        -0.339345         0.899121
 H        -3.031658         1.081986         0.428600
 H        -2.980053        -1.648845         0.458031
 H        -3.103413        -1.270256        -1.493297
 H        -5.447697        -0.409750        -1.859966
 H        -4.989370         0.881107        -0.541825
 H        -4.360508         0.895403        -3.672743
 H        -3.976480         2.173810        -2.529187
