19
Iteration:  2889charge 0 multiplicity 1
 C         1.412211        -0.283728        -0.215898
 C         0.002318        -0.000306        -0.063499
 C        -1.138420         0.444620         0.005022
 C        -2.568423         0.786701         0.102141
 O        -3.025677         0.727437         1.491651
 C        -3.390377        -0.134277        -0.903687
 C        -4.734817         0.219044        -1.622929
 C        -3.989215        -0.086119        -2.946490
 O        -2.657285        -0.264937        -2.144669
 H         1.571478        -1.289459         0.140954
 H         1.805592        -0.268802        -1.267425
 H         2.010627         0.372540         0.390284
 H        -2.806568         1.956175        -0.174032
 H        -3.509274        -0.146685         1.738461
 H        -3.511599        -1.071814        -0.337279
 H        -5.592868        -0.383165        -1.215149
 H        -5.093211         1.274503        -1.321530
 H        -4.213469        -1.108615        -3.338288
 H        -3.932517         0.683454        -3.876217
