19
Iteration:  3796
 C         1.612912        -0.435031         0.422583
 C         0.224616         0.158693         0.364978
 C        -0.874827         0.439851        -0.155373
 C        -2.265082         0.859009        -0.479977
 O        -2.939043         1.406545         0.716540
 C        -3.141017        -0.267224        -1.032617
 C        -4.671575        -0.096567        -0.962194
 C        -4.692418        -0.346284        -2.502998
 O        -3.166489        -0.398904        -2.483168
 H         2.191101         0.316109         0.997782
 H         1.556411        -1.365585         0.940080
 H         2.136834        -0.709954        -0.500307
 H        -2.275337         1.562574        -1.366937
 H        -3.847633         1.186317         0.754517
 H        -2.976787        -1.258725        -0.484430
 H        -5.295569        -0.879125        -0.477419
 H        -5.011362         0.929683        -0.729178
 H        -5.138687        -1.347443        -2.939634
 H        -5.044823         0.479762        -3.265799
