19
Iteration:  2844
 C         1.416264        -0.211494        -0.281828
 C         0.018553         0.064487        -0.049790
 C        -1.145913         0.334197         0.222124
 C        -2.557482         0.639199        -0.016596
 O        -3.252849         0.687984         1.294027
 C        -3.331086        -0.281201        -0.870955
 C        -4.631815         0.337941        -1.495763
 C        -3.939422         0.043748        -2.797036
 O        -2.695395        -0.317476        -2.173733
 H         1.880902        -0.665039         0.598453
 H         1.322523        -1.008873        -1.077309
 H         2.034257         0.522809        -0.658652
 H        -2.411591         1.725148        -0.434606
 H        -2.433995         0.957744         1.847301
 H        -3.398907        -1.269123        -0.421975
 H        -5.627290        -0.157973        -1.467899
 H        -4.898757         1.401798        -1.392892
 H        -4.482234        -0.769234        -3.337081
 H        -3.855844         0.968194        -3.553369
