19
Iteration:  4752
 C         1.213450        -0.636973         0.051059
 C        -0.087076         0.099138        -0.062412
 C        -1.129555         0.687711        -0.388469
 C        -2.493620         1.148845        -0.308402
 O        -2.708329         1.795340         0.914226
 C        -3.366257        -0.122457        -0.677910
 C        -4.652152         0.148249        -1.400861
 C        -4.074344        -0.823245        -2.571361
 O        -2.877183        -0.928425        -1.859402
 H         1.103375        -1.775091        -0.072198
 H         1.736383        -0.455098        -0.986358
 H         1.867317        -0.258357         0.851958
 H        -2.703714         1.967106        -1.070119
 H        -2.475097         1.248258         1.659811
 H        -3.189460        -0.771073         0.267994
 H        -5.553654        -0.130081        -0.780410
 H        -4.650427         1.236697        -1.763897
 H        -4.702432        -1.746107        -2.571035
 H        -4.072314        -0.418841        -3.578160
