19
Iteration:   537charge 0 multiplicity 1
 C         1.480824         0.178306         0.379510
 C         0.067525        -0.052232         0.112981
 C        -1.127550         0.008649        -0.106564
 C        -2.568681         0.068699         0.000416
 O        -2.973908        -0.679943         1.126720
 C        -3.283107        -0.230601        -1.365557
 C        -4.725584         0.200014        -1.480398
 C        -4.191329         1.157683        -2.601978
 O        -2.800392         0.642962        -2.398743
 H         1.868939         0.820181        -0.391181
 H         1.626351         0.652743         1.355091
 H         2.036391        -0.688444         0.469351
 H        -2.879274         1.057273         0.293169
 H        -2.440262        -0.446344         1.851096
 H        -3.224571        -1.283214        -1.644416
 H        -5.453717        -0.618913        -1.715966
 H        -5.104674         0.811170        -0.617457
 H        -4.560541         0.864811        -3.552898
 H        -4.391523         2.194594        -2.437317
