19
Iteration:   753charge 0 multiplicity 1
 C         1.465134        -0.300705         0.046392
 C         0.031986        -0.040180         0.058302
 C        -1.108452         0.323902         0.214257
 C        -2.536971         0.437333         0.124170
 O        -3.191303        -0.422265         1.111694
 C        -3.054622         0.000450        -1.241813
 C        -4.555606        -0.229904        -1.524531
 C        -4.244165         0.672288        -2.731186
 O        -2.876756         0.948190        -2.279149
 H         1.680877        -1.291018         0.405827
 H         2.010496        -0.235824        -0.966904
 H         1.984796         0.366870         0.756934
 H        -2.830857         1.417627         0.475680
 H        -3.040861         0.140532         1.956857
 H        -2.677204        -1.104156        -1.390723
 H        -4.920136        -1.247356        -1.746870
 H        -5.242092         0.225727        -0.821386
 H        -4.283256         0.039270        -3.718257
 H        -4.655209         1.685772        -3.087114
