19
Iteration:  2831
 C         1.410758        -0.264021        -0.301809
 C         0.020572         0.071135        -0.038814
 C        -1.131652         0.360749         0.222230
 C        -2.542237         0.656827         0.081678
 O        -3.268784         0.694300         1.254912
 C        -3.317896        -0.369085        -0.900109
 C        -4.600551         0.371249        -1.434182
 C        -3.958410         0.097722        -2.815092
 O        -2.712455        -0.359773        -2.243355
 H         2.033547        -0.283007         0.666899
 H         1.655350        -1.139463        -0.943822
 H         1.767545         0.607468        -0.775149
 H        -2.830298         1.601708        -0.594742
 H        -3.034203         1.370794         1.854331
 H        -3.461138        -1.379910        -0.492008
 H        -5.500603        -0.100281        -1.086305
 H        -4.500193         1.336869        -1.079749
 H        -4.366390        -0.746063        -3.468142
 H        -3.724333         1.035911        -3.489582
