19
Iteration:  2975charge 0 multiplicity 1
 C         1.439473        -0.481279        -0.072319
 C         0.145155         0.237957         0.031891
 C        -1.016728         0.657362         0.192233
 C        -2.520721         0.815572        -0.048799
 O        -3.099850         0.608242         1.270029
 C        -3.238444        -0.168733        -0.936377
 C        -4.713408         0.156749        -1.450945
 C        -4.159051        -0.228067        -2.828909
 O        -2.882675        -0.200193        -2.367106
 H         1.731302        -0.588581        -1.199391
 H         2.313195         0.182888         0.338964
 H         1.441860        -1.377749         0.520979
 H        -2.700614         1.828688        -0.327108
 H        -3.186131         1.465000         1.728425
 H        -3.115448        -1.139764        -0.371070
 H        -5.338828        -0.540187        -0.943326
 H        -4.951634         1.199920        -1.475157
 H        -4.410069        -1.227755        -3.183458
 H        -4.387558         0.560157        -3.641099
