19
Iteration:  3256charge 0 multiplicity 1
 C         1.609887        -0.274043         0.320693
 C         0.211214         0.005308        -0.116151
 C        -0.992258         0.304074        -0.227960
 C        -2.416095         0.767633        -0.217888
 O        -3.017973         0.988165         1.114309
 C        -3.298268        -0.265179        -0.898262
 C        -4.843876         0.060690        -1.247056
 C        -4.297942        -0.016046        -2.676178
 O        -2.933158        -0.362237        -2.330006
 H         2.050057        -1.157315        -0.040496
 H         2.185833         0.579278         0.185227
 H         1.581164        -0.311246         1.475357
 H        -2.494492         1.669191        -0.785879
 H        -3.842588         1.444388         0.978764
 H        -2.947056        -1.149056        -0.510669
 H        -5.519740        -0.759152        -1.006177
 H        -5.317972         1.034100        -0.978721
 H        -4.868783        -0.616894        -3.430845
 H        -4.362243         1.022178        -3.156766
