19
Iteration:  2765charge 0 multiplicity 1
 C         1.462330        -0.297272        -0.154457
 C         0.073422         0.056376         0.013683
 C        -1.105876         0.313655         0.148163
 C        -2.504004         0.647613        -0.024359
 O        -3.088866         0.759973         1.289395
 C        -3.340970        -0.319675        -0.892775
 C        -4.723365         0.216942        -1.416459
 C        -3.967989         0.286532        -2.782960
 O        -2.831203        -0.370616        -2.307006
 H         2.060425         0.646923        -0.021503
 H         2.070817        -0.902179         0.531843
 H         1.498863        -0.480274        -1.137071
 H        -2.418996         1.635967        -0.576771
 H        -4.074854         0.506754         1.217490
 H        -3.350356        -1.328679        -0.459726
 H        -5.372885        -0.620578        -1.559118
 H        -5.218746         1.102317        -1.158792
 H        -4.456240        -0.329173        -3.624015
 H        -3.824179         1.445771        -3.074342
