19
Iteration:  1456charge 0 multiplicity 1
 C         1.393197        -0.122705         0.031429
 C         0.075009         0.254445         0.079746
 C        -1.130599         0.392486         0.145863
 C        -2.606527         0.363072         0.016750
 O        -3.110026        -0.170451         1.249066
 C        -3.234862        -0.335671        -1.145721
 C        -4.703929         0.258672        -1.450184
 C        -4.028560         0.791974        -2.672746
 O        -2.746082         0.088280        -2.448653
 H         1.588366        -0.598290         1.000383
 H         1.664695        -0.951115        -0.769967
 H         2.012323         0.697945        -0.153934
 H        -2.933121         1.436735         0.163359
 H        -3.001099        -1.131915         1.098854
 H        -3.105001        -1.433493        -1.163270
 H        -5.448023        -0.514626        -1.713514
 H        -5.158287         0.828101        -0.589891
 H        -4.390552         0.709722        -3.705034
 H        -3.783805         1.799854        -2.502449
