19
Iteration:  1959
 C         1.524803        -0.433829         0.379063
 C         0.176790         0.194169         0.164455
 C        -1.040238         0.423595         0.053747
 C        -2.476198         0.627035        -0.142017
 O        -3.089342         0.079256         1.018069
 C        -3.091011        -0.258994        -1.274950
 C        -4.724930        -0.042208        -1.261599
 C        -4.370809         0.550726        -2.633989
 O        -2.958647         0.263002        -2.562415
 H         1.668533        -1.372116        -0.210213
 H         2.305183         0.297737        -0.051044
 H         1.734210        -0.705167         1.477052
 H        -2.729912         1.628817        -0.327003
 H        -3.050604         0.692167         1.830286
 H        -2.858551        -1.313554        -1.166989
 H        -5.090303        -1.043910        -1.259379
 H        -5.006526         0.490491        -0.374544
 H        -4.922933         0.248539        -3.472749
 H        -4.354253         1.638686        -2.639830
