19
Iteration:  4760charge 0 multiplicity 1
 C         1.188768        -0.668551         0.020497
 C        -0.048305         0.118392        -0.133935
 C        -1.107219         0.682421        -0.358451
 C        -2.502994         1.134171        -0.348116
 O        -2.769407         1.799272         0.919350
 C        -3.315273        -0.125257        -0.671062
 C        -4.643473         0.116520        -1.413121
 C        -4.148526        -0.762019        -2.496555
 O        -2.838848        -0.945382        -1.856955
 H         0.967095        -1.653296         0.098463
 H         1.940479        -0.334313        -0.652330
 H         1.699405        -0.315208         0.921183
 H        -2.600152         1.926845        -1.087616
 H        -2.312792         1.215528         1.561976
 H        -3.460221        -0.747691         0.168956
 H        -5.560593         0.024276        -0.827077
 H        -4.619184         1.138499        -1.718414
 H        -4.544883        -1.794116        -2.659712
 H        -3.937471        -0.289754        -3.462952
