19
Iteration:  1821
 C         1.585748        -0.111346         0.379955
 C         0.109578        -0.130060         0.218396
 C        -1.059476         0.070925         0.111672
 C        -2.420507         0.447533        -0.133067
 O        -3.180709         0.100895         1.029703
 C        -3.103921        -0.221008        -1.308752
 C        -4.643714        -0.013101        -1.312039
 C        -4.430628         0.639287        -2.608456
 O        -2.961838         0.461385        -2.568681
 H         2.080100        -0.013307         1.377548
 H         1.993686        -0.973684        -0.126632
 H         1.866472         0.710187        -0.269077
 H        -2.520385         1.595853        -0.238664
 H        -2.558150         0.079278         1.717428
 H        -2.643651        -1.251435        -1.389930
 H        -5.226698        -0.921662        -1.381393
 H        -4.822079         0.579920        -0.399084
 H        -4.673020         0.093547        -3.570031
 H        -4.761301         1.677916        -2.750447
