19
Iteration:  3631charge 0 multiplicity 1
 C         1.651993        -0.227339         0.144680
 C         0.211803         0.181000         0.068203
 C        -1.015528         0.374156        -0.091846
 C        -2.407160         0.785403        -0.255339
 O        -3.140847         1.225212         0.892141
 C        -3.233586        -0.265750        -0.902608
 C        -4.710211         0.167366        -1.220645
 C        -4.333180        -0.152206        -2.696142
 O        -3.055791        -0.751237        -2.186716
 H         1.895667        -0.904209        -0.708020
 H         2.260198         0.648827         0.063984
 H         2.011638        -0.629939         1.134555
 H        -2.529465         1.689401        -0.881385
 H        -2.836293         0.494646         1.533154
 H        -3.265949        -0.903838        -0.076398
 H        -5.449234        -0.568391        -0.855309
 H        -4.890113         1.248362        -1.030674
 H        -4.954473        -0.964719        -3.139247
 H        -4.162353         0.718521        -3.358893
