19
Iteration:  4174
 C         1.405813        -0.385516         0.009618
 C         0.033323         0.053279        -0.092156
 C        -1.091789         0.406898        -0.128753
 C        -2.424851         0.934098        -0.302314
 O        -2.901396         1.507645         0.966486
 C        -3.368806        -0.218526        -0.662220
 C        -4.696744         0.264255        -1.440621
 C        -4.148349        -0.464943        -2.657577
 O        -2.923528        -0.836201        -1.948272
 H         2.160502         0.315223         0.451096
 H         1.459602        -1.221706         0.778971
 H         1.702661        -0.950016        -0.934483
 H        -2.606521         1.703447        -1.179751
 H        -2.286656         2.262746         1.280518
 H        -3.661996        -1.017226         0.151345
 H        -5.639136        -0.211028        -1.107077
 H        -4.908310         1.350679        -1.410875
 H        -4.751801        -1.362704        -2.888353
 H        -3.860880         0.078851        -3.607612
