19
Iteration:  4283charge 0 multiplicity 1
 C         1.333157        -0.610118         0.299190
 C         0.165965         0.275294         0.068587
 C        -0.934651         0.706374        -0.235094
 C        -2.323406         1.056402        -0.450216
 O        -2.865590         1.400641         0.754768
 C        -3.234362        -0.160973        -0.891322
 C        -4.739083         0.202646        -1.160809
 C        -4.510986        -0.715964        -2.414390
 O        -2.944458        -0.681150        -2.234766
 H         1.404259        -1.123114         1.358515
 H         1.394534        -1.466719        -0.414390
 H         2.208680         0.120805         0.271095
 H        -2.307737         1.781004        -1.261411
 H        -2.692293         0.669761         1.319330
 H        -3.209370        -0.910615        -0.076039
 H        -5.566272        -0.015265        -0.458819
 H        -4.589509         1.267367        -1.363314
 H        -4.891993        -1.732096        -2.401161
 H        -4.951384        -0.361152        -3.370230
