19
Iteration:  3131charge 0 multiplicity 1
 C         1.517440        -0.204232         0.448364
 C         0.167679         0.093265         0.146020
 C        -0.915068         0.445780        -0.202114
 C        -2.324391         0.659391        -0.311749
 O        -3.064564         0.838268         1.014589
 C        -3.146524        -0.342825        -1.141577
 C        -4.623998         0.007700        -1.085497
 C        -4.556829         0.141482        -2.625751
 O        -3.082594        -0.365066        -2.557656
 H         1.742489        -0.104706         1.598098
 H         1.537941        -1.362311         0.320154
 H         2.279452         0.526575        -0.013490
 H        -2.541949         1.561396        -0.856790
 H        -2.715104         1.669406         1.411891
 H        -2.922040        -1.329388        -0.541591
 H        -5.223851        -0.871083        -0.786562
 H        -4.832074         0.838604        -0.419071
 H        -5.101780        -0.522314        -3.225761
 H        -4.382869         1.174385        -3.022213
