19
Iteration:  2011charge 0 multiplicity 1
 C         1.542433        -0.190430         0.137300
 C         0.117636        -0.109885         0.092757
 C        -1.058226         0.160982         0.188356
 C        -2.465948         0.507779        -0.040255
 O        -3.172540         0.311563         1.170035
 C        -3.176875        -0.300230        -1.149062
 C        -4.738581        -0.088347        -1.460686
 C        -4.276565         0.503746        -2.742264
 O        -2.865965         0.412028        -2.428744
 H         2.011327        -0.311880        -0.794692
 H         1.937089         0.646480         0.649326
 H         1.841330        -1.045109         0.820732
 H        -2.546011         1.675662        -0.302740
 H        -2.600859         0.816504         1.857915
 H        -3.013537        -1.422357        -1.044073
 H        -5.356635        -0.971260        -1.297169
 H        -4.989871         0.731280        -0.781823
 H        -4.576200        -0.247538        -3.629266
 H        -4.512524         1.510983        -3.125566
