19
Iteration:  3913charge 0 multiplicity 1
 C         1.441473        -0.522006         0.223227
 C         0.155729         0.148845         0.097769
 C        -1.006607         0.506508        -0.074462
 C        -2.406639         0.939983        -0.364055
 O        -2.924311         1.425574         0.866542
 C        -3.262541        -0.169424        -0.878435
 C        -4.759700         0.055173        -1.258188
 C        -4.435077        -0.641801        -2.533848
 O        -2.947582        -0.462952        -2.283196
 H         1.422802        -1.402494         0.862923
 H         1.689086        -0.682202        -0.831171
 H         2.247543         0.216873         0.684716
 H        -2.360479         1.871849        -1.043614
 H        -2.148388         1.891331         1.142918
 H        -3.012525        -1.030861        -0.306447
 H        -5.309402        -0.451802        -0.443016
 H        -5.048769         1.107036        -1.259329
 H        -4.671141        -1.722178        -2.666030
 H        -4.670678        -0.226883        -3.495954
