19
Iteration:   660
 C         1.518287        -0.346017         0.316756
 C         0.123284         0.032131         0.341237
 C        -1.001463         0.460381         0.102086
 C        -2.478755         0.404385        -0.004451
 O        -3.083111        -0.427183         1.075332
 C        -3.107519        -0.145911        -1.333813
 C        -4.621337        -0.158560        -1.533894
 C        -4.441846         0.891222        -2.546528
 O        -2.953178         0.786416        -2.551439
 H         2.053006         0.003308         1.259743
 H         1.675836        -1.352629         0.119491
 H         1.900741         0.296833        -0.466568
 H        -2.758247         1.485919         0.095293
 H        -2.724668        -1.261897         0.888141
 H        -2.590545        -1.170089        -1.454192
 H        -4.914490        -1.059598        -2.064893
 H        -5.222257        -0.088732        -0.622630
 H        -4.879112         0.726359        -3.543218
 H        -4.938709         1.793579        -2.164205
