19
Iteration:  3746charge 0 multiplicity 1
 C         1.406576        -0.308668         0.651719
 C         0.124823         0.035232        -0.033553
 C        -0.871552         0.564325        -0.498259
 C        -2.326589         0.879274        -0.409069
 O        -2.765647         1.245449         0.922403
 C        -3.129833        -0.296165        -0.955610
 C        -4.707754        -0.139476        -1.002233
 C        -4.571457        -0.254958        -2.523938
 O        -3.157067        -0.469787        -2.459575
 H         2.136546         0.513746         0.442331
 H         1.300945        -0.624029         1.761892
 H         1.705592        -1.346539         0.282689
 H        -2.537830         1.628521        -1.207921
 H        -3.279167         2.092483         0.793256
 H        -2.959335        -1.285658        -0.522937
 H        -5.127320        -0.946156        -0.375165
 H        -4.911675         0.902174        -0.727049
 H        -4.991957        -1.044061        -3.100002
 H        -4.745362         0.714049        -2.992188
