19
Iteration:   279
 C         1.403895        -0.020182        -0.201194
 C        -0.001242         0.128132         0.061482
 C        -1.196235         0.079145         0.285425
 C        -2.683206         0.145728         0.314737
 O        -3.374290        -0.937219         0.938059
 C        -2.965415        -0.025109        -1.217459
 C        -4.502006         0.104021        -1.495050
 C        -4.045919         0.988651        -2.596141
 O        -2.702030         1.035659        -2.155419
 H         2.105514         0.584299         0.427788
 H         1.748646        -1.030880        -0.123148
 H         1.550892         0.200164        -1.302639
 H        -3.116690         1.096266         0.631192
 H        -2.824534        -1.763600         0.845061
 H        -2.591064        -1.018737        -1.532495
 H        -5.073312        -0.757377        -1.863142
 H        -5.131227         0.665040        -0.621219
 H        -4.263443         0.413337        -3.544823
 H        -4.396826         1.993200        -2.717595
