19
Iteration:  2481
 C         1.524185        -0.392883         0.302558
 C         0.142489        -0.002533         0.106053
 C        -0.989891         0.411801        -0.060457
 C        -2.391332         0.719475        -0.088676
 O        -3.134161         0.426154         1.171044
 C        -3.146401        -0.122942        -1.124908
 C        -4.616026        -0.021258        -1.185102
 C        -4.443165         0.124479        -2.767914
 O        -2.944843         0.176865        -2.595047
 H         2.119442         0.326227         0.948395
 H         1.548639        -1.480576         0.636240
 H         2.041182        -0.310642        -0.626749
 H        -2.528488         1.732890        -0.486970
 H        -3.389729         1.262398         1.693738
 H        -2.824380        -1.160475        -0.937258
 H        -5.251493        -0.877464        -0.910516
 H        -4.889381         0.875581        -0.625786
 H        -4.704988        -0.785437        -3.339591
 H        -4.904235         0.943404        -3.226950
