19
Iteration:  4446
 C         1.494895        -0.301827         0.500577
 C         0.176819         0.134143         0.063184
 C        -0.912240         0.421182        -0.400620
 C        -2.324029         0.780433        -0.619493
 O        -2.963081         1.480838         0.552012
 C        -3.233760        -0.388824        -0.783342
 C        -4.656201         0.260058        -0.997650
 C        -4.475655        -0.311690        -2.372564
 O        -3.158632        -0.843070        -2.177383
 H         2.333703        -0.697851        -0.241048
 H         1.983464         0.609864         0.873557
 H         1.354861        -1.060605         1.207385
 H        -2.555480         1.320917        -1.587590
 H        -2.465645         2.251810         0.960755
 H        -2.950187        -1.322790        -0.128655
 H        -5.365208        -0.279582        -0.319454
 H        -4.612209         1.350229        -0.843265
 H        -5.195595        -1.113321        -2.817396
 H        -4.513668         0.377313        -3.268283
