19
Iteration:   443
 C         1.371003         0.165894        -0.133024
 C        -0.008929         0.121380         0.253277
 C        -1.196828         0.183587         0.363031
 C        -2.607879         0.086201         0.139830
 O        -3.126686        -0.889843         1.238889
 C        -3.196770        -0.223221        -1.309356
 C        -4.639523         0.309304        -1.593450
 C        -4.000079         1.144363        -2.660063
 O        -2.674738         0.565578        -2.343001
 H         1.581077        -0.661930        -0.954786
 H         1.536043         1.166761        -0.584525
 H         2.047520         0.334373         0.800434
 H        -3.160211         1.116344         0.324418
 H        -3.268460        -1.714905         0.614901
 H        -3.033130        -1.283216        -1.626533
 H        -5.394214        -0.371118        -1.956758
 H        -4.981129         0.906309        -0.776764
 H        -4.206633         0.747637        -3.669167
 H        -4.034166         2.238248        -2.678873
