19
Iteration:  4548
 C         1.475708        -0.209517         0.366114
 C         0.021619        -0.040465        -0.057373
 C        -1.085181         0.213675        -0.438619
 C        -2.398579         0.906034        -0.510866
 O        -2.746242         1.645422         0.650468
 C        -3.361807        -0.217651        -0.656917
 C        -4.722274         0.207057        -1.164312
 C        -4.343070        -0.469718        -2.486604
 O        -3.000016        -0.783870        -2.000805
 H         1.990249         0.737656         0.335680
 H         1.585337        -0.693147         1.370386
 H         2.014132        -1.065285        -0.180690
 H        -2.430589         1.332506        -1.527271
 H        -2.229252         1.232389         1.383624
 H        -3.428126        -0.991813         0.235726
 H        -5.526710        -0.259856        -0.583907
 H        -5.061682         1.241100        -1.446158
 H        -4.917052        -1.398812        -2.679864
 H        -4.181623         0.180648        -3.401647
