19
Iteration:  2510charge 0 multiplicity 1
 C         1.618946        -0.347806         0.295491
 C         0.198238         0.019223         0.069979
 C        -1.013562         0.212028         0.046980
 C        -2.396599         0.602611        -0.042776
 O        -3.078107         0.610656         1.185026
 C        -3.240013        -0.153031        -1.131324
 C        -4.723113        -0.040070        -1.310887
 C        -4.419123         0.040501        -2.851831
 O        -3.025890         0.304603        -2.502563
 H         1.903415        -0.014156         1.339825
 H         1.895815        -1.466486         0.267724
 H         2.319762         0.289748        -0.303876
 H        -2.387588         1.664330        -0.601057
 H        -2.524565         0.879371         1.935017
 H        -2.927641        -1.236243        -1.148774
 H        -5.484102        -0.747603        -1.055890
 H        -4.999286         0.901747        -0.852993
 H        -4.479193        -0.904066        -3.405039
 H        -5.046924         0.763028        -3.478178
