19
Iteration:  4889
 C         1.523858        -0.487150         0.033952
 C         0.145094        -0.073838         0.018968
 C        -1.003666         0.253800         0.070517
 C        -2.324804         1.017302        -0.375409
 O        -2.894868         1.966868         0.429440
 C        -3.396082        -0.168514        -0.649203
 C        -4.815759         0.079270        -1.168969
 C        -4.317033        -0.644388        -2.461091
 O        -2.989616        -0.748805        -1.968257
 H         2.171532        -0.175527        -0.850930
 H         2.067475         0.045948         0.803390
 H         1.608893        -1.625688         0.104712
 H        -1.852182         1.547613        -1.200004
 H        -3.860146         1.785357         0.606048
 H        -3.240651        -1.061303         0.042791
 H        -5.600970        -0.423355        -0.571377
 H        -4.986341         1.094715        -1.329511
 H        -4.696338        -1.616589        -2.734015
 H        -4.285875         0.005734        -3.346504
