19
Iteration:  1626
 C         1.266655        -0.108630        -0.373855
 C         0.001009         0.227747         0.075911
 C        -1.201193         0.427578         0.277410
 C        -2.700176         0.395870         0.209796
 O        -3.317453        -0.336081         1.308126
 C        -3.203271        -0.220924        -1.091400
 C        -4.585956         0.366884        -1.500506
 C        -3.831936         0.510411        -2.884563
 O        -2.539608         0.239129        -2.237911
 H         1.243858        -0.364984        -1.423175
 H         2.026889         0.467260        -0.012616
 H         1.556462        -1.086230         0.173634
 H        -3.080016         1.527144         0.367069
 H        -2.670573        -0.379788         1.978855
 H        -3.111485        -1.326563        -0.937473
 H        -5.436203        -0.306810        -1.451619
 H        -4.786480         1.272563        -0.913205
 H        -4.204421        -0.217512        -3.641343
 H        -3.855805         1.532222        -3.274673
