19
Iteration:   452
 C         1.446327         0.176171        -0.094947
 C         0.025965         0.202562         0.276921
 C        -1.207461         0.154122         0.381079
 C        -2.646692         0.111738         0.077138
 O        -3.122789        -0.879101         1.146095
 C        -3.233908        -0.245151        -1.318313
 C        -4.676604         0.321481        -1.522173
 C        -3.993746         1.111712        -2.662634
 O        -2.686361         0.556031        -2.365607
 H         1.736467        -0.639922        -0.933583
 H         1.701813         1.123534        -0.472148
 H         2.134161        -0.135439         0.716604
 H        -3.109125         1.081871         0.489346
 H        -3.343460        -1.872548         0.904700
 H        -3.172450        -1.352240        -1.371439
 H        -5.341005        -0.483801        -1.775662
 H        -5.102237         1.036778        -0.905361
 H        -4.255180         0.904426        -3.729247
 H        -3.954893         2.259123        -2.514541
