19
Iteration:  2788charge 0 multiplicity 1
 C         1.500479        -0.243822        -0.286741
 C         0.077524         0.040806         0.026459
 C        -1.099132         0.263114         0.240514
 C        -2.497446         0.726515         0.007038
 O        -3.237659         0.673721         1.191714
 C        -3.310001        -0.233700        -0.912121
 C        -4.696353         0.241056        -1.334114
 C        -3.985711         0.268234        -2.854741
 O        -2.789952        -0.456347        -2.229346
 H         2.182605         0.335146         0.365798
 H         1.875221        -1.218726         0.127864
 H         1.689466        -0.101768        -1.269851
 H        -2.408528         1.839384        -0.213025
 H        -4.076993         1.040329         0.952497
 H        -3.220931        -1.106790        -0.269884
 H        -5.515227        -0.477602        -1.260669
 H        -4.941889         1.240262        -1.047555
 H        -4.450689        -0.387035        -3.641657
 H        -3.653840         1.360439        -3.233616
