19
Iteration:  1852charge 0 multiplicity 1
 C         1.591073        -0.231963         0.578626
 C         0.214786         0.029444         0.064986
 C        -0.966409         0.147124        -0.155340
 C        -2.485383         0.427072        -0.106483
 O        -3.049180         0.211234         1.225360
 C        -3.209878        -0.265871        -1.285781
 C        -4.758667        -0.125340        -1.441299
 C        -4.418191         0.674624        -2.678584
 O        -3.017597         0.460338        -2.519505
 H         1.757321        -0.659637         1.566525
 H         2.211588        -0.848186        -0.110465
 H         2.104804         0.632312         0.493693
 H        -2.608143         1.582782        -0.288043
 H        -2.427953        -0.477664         1.668026
 H        -2.727919        -1.252013        -1.392072
 H        -5.335643        -1.029885        -1.640003
 H        -5.134989         0.266818        -0.479914
 H        -4.645284         0.199172        -3.649702
 H        -4.830411         1.751508        -2.656843
