19
Iteration:   748charge 0 multiplicity 1
 C         1.458650        -0.308186         0.074408
 C         0.039685        -0.058714         0.018972
 C        -1.099214         0.376794         0.144418
 C        -2.545786         0.418666         0.140992
 O        -3.205951        -0.408982         1.110964
 C        -3.033768        -0.023940        -1.223550
 C        -4.577122        -0.255552        -1.510551
 C        -4.217080         0.693577        -2.748899
 O        -2.880691         0.950013        -2.255745
 H         1.680707        -1.311934         0.536773
 H         1.968133        -0.301920        -0.846714
 H         2.094415         0.392569         0.706936
 H        -2.924199         1.437557         0.451795
 H        -3.020113         0.066166         1.918850
 H        -2.638078        -1.003179        -1.432877
 H        -4.893202        -1.265888        -1.780488
 H        -5.267629         0.190928        -0.762063
 H        -4.227013         0.210245        -3.701685
 H        -4.785857         1.587855        -2.992980
