19
Iteration:  3431charge 0 multiplicity 1
 C         1.221577        -0.495897        -0.360422
 C        -0.077789         0.215242         0.017240
 C        -1.184441         0.731618        -0.121439
 C        -2.662699         1.071073         0.082832
 O        -2.950261         0.935848         1.483407
 C        -3.342827         0.001434        -0.888126
 C        -4.571087         0.176780        -1.710346
 C        -3.832384        -0.463856        -2.844481
 O        -2.716252        -0.623055        -1.936122
 H         2.207056        -0.003306        -0.047385
 H         1.350522        -1.506275         0.040896
 H         1.176714        -0.469847        -1.594871
 H        -3.056474         2.126532        -0.148755
 H        -2.773006         0.019098         1.770833
 H        -3.555131        -0.853480        -0.025481
 H        -5.526024        -0.340038        -1.511212
 H        -4.949377         1.192173        -1.959992
 H        -4.346368        -1.362799        -3.091877
 H        -3.549288         0.131313        -3.734073
