19
Iteration:  3146charge 0 multiplicity 1
 C         1.535539        -0.266765         0.577787
 C         0.227650         0.161603        -0.044164
 C        -0.947672         0.425870        -0.169677
 C        -2.353245         0.799539        -0.319973
 O        -3.002230         0.747928         0.930953
 C        -3.171364        -0.364801        -1.031304
 C        -4.664688        -0.008291        -1.081574
 C        -4.435724         0.158452        -2.596408
 O        -3.142393        -0.382856        -2.533217
 H         1.423379        -0.258946         1.595344
 H         1.871562        -1.145048         0.203976
 H         2.336295         0.453108         0.330695
 H        -2.442272         1.777220        -0.899622
 H        -3.164588         1.714899         1.187502
 H        -2.859801        -1.305865        -0.756876
 H        -5.359354        -0.802265        -0.779829
 H        -5.063086         0.893543        -0.589550
 H        -5.184096        -0.506447        -3.190621
 H        -4.618224         1.224999        -2.971587
