19
Iteration:  1073
 C         1.404736         0.062441        -0.110921
 C         0.004255        -0.141110        -0.060918
 C        -1.163433         0.022260         0.182108
 C        -2.526984         0.418401         0.105749
 O        -3.354177        -0.074462         1.206927
 C        -3.139368        -0.256685        -1.135184
 C        -4.660774         0.030766        -1.472601
 C        -4.018939         0.746845        -2.654284
 O        -2.640195         0.477062        -2.264268
 H         1.980069        -0.447818         0.792257
 H         1.963759        -0.253536        -1.079379
 H         1.677300         1.035870         0.242008
 H        -2.799424         1.546794         0.006296
 H        -3.065904        -1.013129         1.519027
 H        -2.925547        -1.298601        -1.284706
 H        -5.322949        -0.856941        -1.615086
 H        -5.131066         0.845862        -0.885596
 H        -4.120430         0.298245        -3.637950
 H        -4.233366         1.863116        -2.848716
