19
Iteration:  2944
 C         1.324213        -0.423506        -0.045289
 C         0.045614         0.253523        -0.116044
 C        -1.131803         0.571313        -0.122696
 C        -2.555630         0.795245        -0.009870
 O        -3.077229         0.559824         1.409837
 C        -3.185064        -0.122856        -0.898290
 C        -4.645223         0.253695        -1.474883
 C        -4.014542        -0.195766        -2.730321
 O        -2.738552        -0.241388        -2.302524
 H         1.314384        -1.229755        -0.761589
 H         2.133538         0.282946        -0.307161
 H         1.565225        -0.969487         0.801482
 H        -2.798382         1.911842        -0.180634
 H        -4.033964         0.833180         1.372141
 H        -3.236051        -1.055790        -0.343976
 H        -5.438781        -0.330756        -0.976986
 H        -4.914236         1.351295        -1.350529
 H        -4.358651        -1.227093        -3.014842
 H        -4.307539         0.525579        -3.648335
