19
Iteration:  4490charge 0 multiplicity 1
 C         1.452833        -0.292285         0.592416
 C         0.238451         0.234909        -0.076388
 C        -0.902159         0.461780        -0.439452
 C        -2.279849         0.925469        -0.545421
 O        -2.657984         1.631893         0.763442
 C        -3.337214        -0.328878        -0.877085
 C        -4.794437         0.115752        -1.066297
 C        -4.478493        -0.374424        -2.603276
 O        -3.304730        -1.034690        -2.095288
 H         2.428992        -0.246503        -0.079857
 H         1.643576         0.180095         1.556152
 H         1.322767        -1.326715         0.574280
 H        -2.342025         1.728473        -1.325510
 H        -2.061738         1.032748         1.258372
 H        -3.215682        -0.997058         0.047312
 H        -5.546569        -0.552020        -0.593531
 H        -5.134331         1.157398        -0.926962
 H        -5.270023        -1.041357        -3.079165
 H        -4.300744         0.371123        -3.421213
