19
Iteration:  2042charge 0 multiplicity 1
 C         1.543845        -0.077115         0.057979
 C         0.056499        -0.244624         0.022724
 C        -1.101829         0.029212         0.036021
 C        -2.514099         0.547506         0.066107
 O        -3.298014         0.416554         1.289119
 C        -3.192347        -0.209671        -1.133430
 C        -4.681362        -0.012277        -1.436647
 C        -4.158892         0.379715        -2.766226
 O        -2.743256         0.407038        -2.416263
 H         1.883966         0.356087        -0.918734
 H         1.832365         0.474289         0.911676
 H         2.064550        -1.039044         0.215456
 H        -2.498795         1.578870        -0.207383
 H        -2.913461        -0.262951         1.791619
 H        -2.931455        -1.262400        -0.901738
 H        -5.359994        -0.852864        -1.126419
 H        -5.029852         0.777082        -0.737218
 H        -4.485716        -0.503725        -3.436864
 H        -4.418209         1.374559        -3.185795
