19
Iteration:  2882charge 0 multiplicity 1
 C         1.449518        -0.265999        -0.219600
 C         0.006515         0.021886        -0.040756
 C        -1.162364         0.367494        -0.027199
 C        -2.550238         0.796045         0.093511
 O        -3.094241         0.741690         1.527450
 C        -3.368383        -0.070481        -0.876505
 C        -4.739833         0.207866        -1.628685
 C        -3.991362        -0.068498        -2.913418
 O        -2.674014        -0.291354        -2.166336
 H         1.581050        -1.296829         0.125592
 H         1.638579        -0.447204        -1.261620
 H         2.245484         0.502630         0.181858
 H        -2.678900         1.722688        -0.295892
 H        -3.264932        -0.215924         1.738074
 H        -3.393486        -1.071291        -0.377087
 H        -5.610289        -0.460332        -1.510993
 H        -4.945480         1.308167        -1.488683
 H        -4.115425        -1.028840        -3.374573
 H        -3.977187         0.693187        -3.610722
