19
Iteration:   888charge 0 multiplicity 1
 C         1.457223         0.080564         0.030801
 C        -0.002912         0.031380         0.093685
 C        -1.202292         0.148810        -0.015337
 C        -2.690634         0.280395         0.119306
 O        -2.969970        -0.346023         1.316593
 C        -3.387787        -0.298861        -1.175146
 C        -4.773723         0.334356        -1.559008
 C        -3.915500         0.828009        -2.784220
 O        -2.702517         0.345836        -2.242425
 H         1.899061         0.496211        -0.955154
 H         1.807118         0.605301         0.905517
 H         1.842919        -0.890725         0.028011
 H        -3.011569         1.338753         0.236116
 H        -2.694455        -1.315697         1.280272
 H        -3.384537        -1.445987        -1.057209
 H        -5.553480        -0.320847        -1.959204
 H        -5.167680         1.134779        -0.869258
 H        -3.932468         0.378322        -3.798105
 H        -3.945286         1.916323        -2.975967
