19
Iteration:  1777
 C         1.653109        -0.166411         0.109179
 C         0.182453         0.053942         0.255725
 C        -1.013481         0.055103         0.319673
 C        -2.429569         0.447866         0.016476
 O        -3.357467        -0.064878         1.026512
 C        -3.146096        -0.225239        -1.249017
 C        -4.677466         0.063966        -1.306983
 C        -4.308044         0.632990        -2.785143
 O        -2.917573         0.488874        -2.510631
 H         2.232030         0.482288         0.805809
 H         2.131495        -1.102141         0.402992
 H         2.014142         0.020103        -0.920111
 H        -2.508600         1.489888        -0.199851
 H        -3.125282         0.401146         1.794715
 H        -2.852753        -1.317187        -1.334791
 H        -5.342404        -0.803716        -1.310499
 H        -5.054555         0.871428        -0.646945
 H        -4.804870        -0.069884        -3.535967
 H        -4.518247         1.654996        -3.101868
