19
Iteration:  1174charge 0 multiplicity 1
 C         1.340320        -0.460384         0.119967
 C        -0.045165         0.034278         0.086581
 C        -1.084728         0.648487         0.049404
 C        -2.612853         0.571766         0.154155
 O        -3.087687        -0.326430         1.219269
 C        -3.045037        -0.076495        -1.183893
 C        -4.531337        -0.068819        -1.462765
 C        -4.236398         0.431173        -2.859158
 O        -2.852630         0.794452        -2.330903
 H         1.619578        -1.485070        -0.485228
 H         2.141181         0.156126        -0.286502
 H         1.642617        -0.617578         1.181562
 H        -3.103783         1.596199         0.198107
 H        -2.371903        -0.923342         1.226810
 H        -2.582146        -1.038986        -1.430086
 H        -4.925683        -1.126861        -1.489027
 H        -5.049432         0.615923        -0.721797
 H        -4.172863        -0.254911        -3.717347
 H        -4.666497         1.411395        -3.006378
