19
Iteration:  1518
 C         1.396935         0.145752        -0.234555
 C        -0.020035        -0.026234        -0.040581
 C        -1.190516        -0.063673         0.305698
 C        -2.600812         0.333220         0.137594
 O        -3.329908        -0.047128         1.315094
 C        -3.265635        -0.324028        -1.148498
 C        -4.636555         0.251141        -1.490205
 C        -3.890831         0.710909        -2.809977
 O        -2.626137         0.246116        -2.251533
 H         1.935672        -0.776451        -0.163383
 H         1.639452         0.416952        -1.319166
 H         1.813960         0.870769         0.551582
 H        -2.661267         1.398218        -0.057345
 H        -2.794164         0.052413         2.125012
 H        -2.869038        -1.331752        -1.035209
 H        -5.373495        -0.532463        -1.663989
 H        -5.012525         1.046655        -0.845597
 H        -4.134587         0.219259        -3.752120
 H        -3.855610         1.870334        -2.948322
