19
Iteration:  3175
 C         1.466389        -0.252036         0.585750
 C         0.234840         0.183605        -0.014950
 C        -0.876920         0.486065        -0.360317
 C        -2.309517         0.738544        -0.296443
 O        -2.837548         0.783693         1.005245
 C        -3.307783        -0.333756        -0.977244
 C        -4.761274        -0.033284        -1.136459
 C        -4.434626         0.161946        -2.654195
 O        -3.109634        -0.391345        -2.472698
 H         1.140318        -0.916628         1.478769
 H         2.023871        -0.973363        -0.123419
 H         2.032196         0.612314         1.103083
 H        -2.456854         1.687140        -0.813111
 H        -3.522804         1.463731         0.904526
 H        -3.058452        -1.399155        -0.611110
 H        -5.371630        -0.936465        -0.935154
 H        -5.269106         0.776973        -0.644258
 H        -5.060161        -0.455919        -3.203184
 H        -4.514026         1.211685        -2.919927
