19
Iteration:  1870charge 0 multiplicity 1
 C         1.564940        -0.279779         0.594658
 C         0.217919         0.066084         0.093282
 C        -0.942098         0.300004        -0.266647
 C        -2.446913         0.467813        -0.117129
 O        -2.935459         0.228630         1.238339
 C        -3.262604        -0.342217        -1.239360
 C        -4.799571        -0.185082        -1.464881
 C        -4.476284         0.670569        -2.683691
 O        -2.981117         0.466868        -2.488373
 H         1.260481        -1.010536         1.360279
 H         2.274736        -0.898504        -0.075865
 H         2.212884         0.585991         1.116274
 H        -2.749419         1.436851        -0.197869
 H        -2.811530        -0.783770         1.383974
 H        -2.937382        -1.383139        -1.300457
 H        -5.169456        -1.209379        -1.663690
 H        -5.390449         0.382148        -0.728234
 H        -4.857596         0.407167        -3.685169
 H        -4.519177         1.754518        -2.684531
