19
Iteration:  4469charge 0 multiplicity 1
 C         1.397609        -0.307063         0.569536
 C         0.253224         0.268534        -0.061737
 C        -0.892015         0.470250        -0.403449
 C        -2.313004         0.800486        -0.570796
 O        -2.805253         1.428416         0.544491
 C        -3.304679        -0.293462        -0.760513
 C        -4.727700         0.166535        -1.037969
 C        -4.483009        -0.289468        -2.450374
 O        -3.188499        -0.921013        -2.104231
 H         2.288528        -0.387240        -0.203846
 H         1.837383         0.378967         1.272967
 H         1.189216        -1.304228         0.890276
 H        -2.431100         1.421318        -1.504916
 H        -2.099093         1.492688         1.176062
 H        -3.118029        -1.090086         0.084377
 H        -5.517596        -0.301564        -0.427295
 H        -4.757465         1.248076        -1.091574
 H        -5.316716        -1.003627        -2.806493
 H        -4.431119         0.401606        -3.339459
