19
Iteration:  2724charge 0 multiplicity 1
 C         1.391520        -0.299692         0.072226
 C         0.025922         0.033116        -0.123337
 C        -1.158004         0.321738        -0.134141
 C        -2.554763         0.616555        -0.054482
 O        -2.932552         0.767600         1.286533
 C        -3.312527        -0.330010        -0.899123
 C        -4.770189         0.075630        -1.380053
 C        -4.010347         0.384337        -2.775286
 O        -2.756274        -0.255797        -2.287224
 H         1.911897         0.451082        -0.593067
 H         1.748763        -0.102945         1.169794
 H         1.721242        -1.361611        -0.246866
 H        -2.809879         1.603357        -0.535357
 H        -3.807051         0.441147         1.418670
 H        -3.267043        -1.374684        -0.545037
 H        -5.510558        -0.778568        -1.348262
 H        -5.198119         0.886217        -0.675290
 H        -4.440946        -0.187492        -3.544295
 H        -3.745479         1.378040        -3.026045
