19
Iteration:   494
 C         1.554105         0.158960         0.222091
 C         0.077592         0.234757         0.003394
 C        -1.154985         0.170527        -0.002071
 C        -2.596484         0.115270         0.124474
 O        -3.304037        -0.864786         0.993046
 C        -3.254764        -0.181405        -1.173495
 C        -4.659664         0.313019        -1.371619
 C        -4.045968         1.065650        -2.616528
 O        -2.725131         0.498674        -2.399794
 H         2.010063         0.002932        -0.767252
 H         1.987589         0.977154         0.691739
 H         1.729764        -0.645592         0.812992
 H        -2.963366         1.071301         0.427684
 H        -2.595309        -1.517950         1.201279
 H        -3.102899        -1.243184        -1.371597
 H        -5.267563        -0.554620        -1.665108
 H        -5.090867         0.855030        -0.520521
 H        -4.431152         0.968231        -3.645871
 H        -3.943848         2.165679        -2.368594
