19
Iteration:  1437charge 0 multiplicity 1
 C         1.423386        -0.217189         0.202511
 C         0.028064         0.326433        -0.029657
 C        -1.169598         0.418012         0.006480
 C        -2.624336         0.415798         0.001723
 O        -3.045635        -0.195320         1.257676
 C        -3.293234        -0.411027        -1.137303
 C        -4.618242         0.146826        -1.391376
 C        -4.033583         0.917042        -2.651198
 O        -2.787563         0.135154        -2.492415
 H         1.587351        -0.270365         1.347048
 H         1.539117        -1.114671        -0.324017
 H         2.204063         0.396463        -0.269956
 H        -3.009281         1.376601         0.015331
 H        -2.841696        -1.193602         1.145979
 H        -2.959522        -1.480960        -1.064606
 H        -5.407240        -0.585698        -1.568480
 H        -5.047603         0.831407        -0.627916
 H        -4.496730         0.549348        -3.653271
 H        -3.875653         2.061112        -2.730472
