19
Iteration:  4467
 C         1.403716        -0.302632         0.579888
 C         0.256370         0.259088        -0.058920
 C        -0.906226         0.471508        -0.410806
 C        -2.307402         0.798018        -0.569484
 O        -2.834824         1.419959         0.527842
 C        -3.307575        -0.309951        -0.761168
 C        -4.706263         0.164686        -1.013418
 C        -4.474152        -0.285276        -2.461190
 O        -3.179580        -0.903549        -2.098978
 H         2.247773        -0.460231        -0.267371
 H         1.868027         0.399063         1.275493
 H         1.234705        -1.293206         0.862071
 H        -2.411865         1.424268        -1.509658
 H        -2.010391         1.503154         1.112550
 H        -3.148475        -1.044926         0.081809
 H        -5.581615        -0.228077        -0.412667
 H        -4.762606         1.271316        -1.062662
 H        -5.336043        -0.986885        -2.740938
 H        -4.461826         0.371217        -3.348384
