19
Iteration:  2144charge 0 multiplicity 1
 C         1.347585        -0.205387        -0.182948
 C        -0.057852         0.108928        -0.091288
 C        -1.158948         0.478122         0.238859
 C        -2.619819         0.585613         0.155103
 O        -3.171337        -0.010800         1.340418
 C        -3.296435        -0.171838        -0.991483
 C        -4.570620         0.439892        -1.460857
 C        -3.951776         0.256266        -2.916859
 O        -2.660314        -0.007900        -2.320305
 H         1.970677         0.376865         0.444949
 H         1.461295        -1.138822         0.332076
 H         1.678072        -0.186904        -1.251472
 H        -2.889173         1.637200         0.060943
 H        -2.410965        -0.240204         1.968048
 H        -3.457734        -1.141657        -0.547013
 H        -5.521626        -0.048740        -1.452672
 H        -4.696003         1.513575        -1.251875
 H        -4.247509        -0.691403        -3.456692
 H        -3.976641         1.074354        -3.635210
