19
Iteration:   546charge 0 multiplicity 1
 C         1.535257         0.177127         0.383332
 C         0.056175        -0.077526         0.218143
 C        -1.086724        -0.045098        -0.239518
 C        -2.523727         0.146970         0.013987
 O        -2.988498        -0.683719         1.149273
 C        -3.298883        -0.249847        -1.355640
 C        -4.782896         0.214664        -1.522287
 C        -4.260494         1.104661        -2.594714
 O        -2.791991         0.675694        -2.396005
 H         1.883648         0.942665        -0.253308
 H         1.613208         0.609927         1.490852
 H         2.183803        -0.764558         0.293563
 H        -2.900316         1.232608         0.225491
 H        -2.515973        -0.341309         1.885461
 H        -2.948392        -1.243733        -1.633584
 H        -5.530945        -0.514503        -1.928011
 H        -5.110733         0.634564        -0.509056
 H        -4.595178         0.940839        -3.604607
 H        -4.344184         2.117540        -2.340457
