19
Iteration:  1124
 C         1.435243        -0.307053        -0.105476
 C         0.106365         0.248527         0.294002
 C        -1.134040         0.273438         0.326615
 C        -2.538256         0.406776         0.161870
 O        -3.280375        -0.214570         1.218600
 C        -3.097022        -0.107097        -1.166710
 C        -4.592202        -0.038266        -1.476881
 C        -4.208218         0.613824        -2.856826
 O        -2.790806         0.614275        -2.464674
 H         1.470328        -1.320361        -0.121558
 H         1.522625        -0.073886        -1.181562
 H         2.408498        -0.111073         0.415911
 H        -2.791093         1.468891         0.140326
 H        -2.717475        -0.947473         1.589034
 H        -2.641742        -1.089247        -1.438006
 H        -5.138908        -0.936872        -1.433367
 H        -4.908715         0.733071        -0.814729
 H        -4.303459        -0.068118        -3.730362
 H        -4.520865         1.641503        -3.066335
