19
Iteration:  1020
 C         1.491887         0.193293        -0.095082
 C         0.065706         0.055776         0.061367
 C        -1.151311        -0.046677         0.173455
 C        -2.657357         0.201022         0.117283
 O        -3.171016        -0.113146         1.377830
 C        -3.399034        -0.405063        -1.174097
 C        -4.687695         0.264337        -1.605828
 C        -3.897678         0.981005        -2.699966
 O        -2.696620         0.181272        -2.350583
 H         2.052845         0.569366         0.847097
 H         1.900152        -0.745695        -0.469087
 H         1.768054         0.875700        -0.854201
 H        -2.916434         1.258296        -0.096284
 H        -2.898447        -0.985686         1.818945
 H        -3.490122        -1.549064        -1.160914
 H        -5.411234        -0.484234        -2.045917
 H        -5.399025         0.776266        -0.902741
 H        -4.323016         0.969251        -3.745061
 H        -3.663685         2.045852        -2.611015
