19
Iteration:  4519
 C         1.455535        -0.229515         0.481068
 C         0.078197        -0.003613        -0.017173
 C        -0.917132         0.493860        -0.451448
 C        -2.287081         0.921144        -0.512659
 O        -2.520561         1.667321         0.751572
 C        -3.381869        -0.238287        -0.781659
 C        -4.901612         0.101637        -1.148959
 C        -4.435305        -0.446171        -2.596371
 O        -3.206264        -0.960943        -2.049057
 H         2.161557         0.531437         0.159774
 H         1.592091        -0.106293         1.599477
 H         1.722136        -1.280072         0.179127
 H        -2.372208         1.560526        -1.396910
 H        -2.460917         0.870089         1.394049
 H        -3.432818        -0.868352         0.070561
 H        -5.427568        -0.722076        -0.627506
 H        -5.284827         1.109416        -1.346922
 H        -5.055746        -1.174978        -3.118973
 H        -4.225254         0.360724        -3.308843
