19
Iteration:  3669charge 0 multiplicity 1
 C         1.525942        -0.247132         0.385575
 C         0.113886         0.151302         0.149608
 C        -0.914052         0.608235        -0.316277
 C        -2.443039         0.867182        -0.371520
 O        -2.724246         1.226434         0.958228
 C        -3.249638        -0.318811        -0.907437
 C        -4.798241        -0.011694        -1.215850
 C        -4.487313        -0.161695        -2.686021
 O        -3.114607        -0.715414        -2.302066
 H         2.116034        -0.418788        -0.577007
 H         2.169614         0.526891         0.988635
 H         1.424247        -1.155946         1.018299
 H        -2.608673         1.717729        -1.047612
 H        -2.851604         0.548093         1.668106
 H        -2.973364        -1.300895        -0.466776
 H        -5.400601        -0.771937        -0.701590
 H        -5.159498         0.912482        -0.759991
 H        -5.056988        -0.858883        -3.305215
 H        -4.294710         0.746881        -3.255097
