19
Iteration:  1402
 C         1.428023        -0.182807         0.367269
 C         0.097265         0.077482        -0.003075
 C        -1.081945         0.388040        -0.166326
 C        -2.565377         0.473090        -0.039012
 O        -3.002808        -0.219038         1.190690
 C        -3.295357        -0.297320        -1.089541
 C        -4.752213         0.026406        -1.461013
 C        -4.131927         0.911115        -2.675455
 O        -2.864226         0.262795        -2.458172
 H         1.801119         0.305719         1.309304
 H         1.656710        -1.278816         0.613478
 H         2.042031         0.249155        -0.365388
 H        -2.778149         1.495054         0.083738
 H        -2.175327        -0.513714         1.665041
 H        -2.939264        -1.352524        -1.072873
 H        -5.236838        -0.893875        -1.838701
 H        -5.330751         0.513317        -0.612428
 H        -4.509193         0.758697        -3.758370
 H        -4.133766         2.018905        -2.420135
