19
Iteration:  3429charge 0 multiplicity 1
 C         1.235327        -0.488308        -0.367608
 C        -0.084780         0.204752         0.022865
 C        -1.188879         0.713549        -0.120132
 C        -2.663335         1.068915         0.083328
 O        -2.952503         0.943932         1.474713
 C        -3.347353        -0.006604        -0.878248
 C        -4.578332         0.193571        -1.698882
 C        -3.826881        -0.474360        -2.855569
 O        -2.707793        -0.607320        -1.931799
 H         2.127613         0.067092        -0.124687
 H         1.267873        -1.509184         0.082681
 H         1.194346        -0.506810        -1.531575
 H        -3.045958         2.105389        -0.179737
 H        -2.700946        -0.009677         1.752347
 H        -3.550375        -0.848823        -0.137814
 H        -5.474210        -0.356437        -1.504823
 H        -4.944326         1.158008        -1.967946
 H        -4.382462        -1.410299        -3.092314
 H        -3.556991         0.162489        -3.653754
