19
Iteration:   801charge 0 multiplicity 1
 C         1.553294        -0.132248        -0.125633
 C         0.167064         0.044535         0.366884
 C        -1.051661         0.143339         0.276999
 C        -2.530282         0.337275         0.111651
 O        -3.443969        -0.424931         1.066160
 C        -3.044263        -0.129896        -1.234089
 C        -4.613781         0.152051        -1.383160
 C        -4.213722         0.574016        -2.813630
 O        -2.811914         0.835907        -2.353993
 H         1.692881        -1.022401        -0.924533
 H         1.836555         0.727648        -0.756237
 H         2.322909        -0.264840         0.612113
 H        -2.877157         1.368240         0.234302
 H        -3.007101        -0.445868         1.918415
 H        -2.920409        -1.163521        -1.494339
 H        -5.225965        -0.746393        -1.472247
 H        -5.085876         0.852582        -0.654617
 H        -4.130859        -0.357898        -3.448214
 H        -4.806542         1.374428        -3.259718
