19
Iteration:  1768charge 0 multiplicity 1
 C         1.606301        -0.167390         0.086010
 C         0.216490         0.079845         0.207615
 C        -1.028766         0.038373         0.336700
 C        -2.487865         0.445829         0.017318
 O        -3.301782        -0.077668         1.080882
 C        -3.188347        -0.208969        -1.235646
 C        -4.683228         0.132112        -1.367789
 C        -4.295053         0.587546        -2.809084
 O        -2.884411         0.482621        -2.468795
 H         2.090459         0.686742         0.651143
 H         1.658934        -1.136036         0.544392
 H         2.105178        -0.120742        -1.032681
 H        -2.645379         1.462337        -0.123885
 H        -3.018102         0.266009         1.886685
 H        -2.834144        -1.249850        -1.376488
 H        -5.260670        -0.788514        -1.418635
 H        -4.954606         0.733548        -0.479372
 H        -4.367691        -0.040857        -3.723773
 H        -4.567033         1.578769        -3.014039
