19
Iteration:   898
 C         1.447241         0.048646         0.011115
 C        -0.015519         0.103758         0.167660
 C        -1.210292         0.190005        -0.096985
 C        -2.675588         0.279587         0.042197
 O        -2.969914        -0.384375         1.334716
 C        -3.442820        -0.279313        -1.125897
 C        -4.804242         0.350734        -1.586527
 C        -3.894487         0.869567        -2.750467
 O        -2.657114         0.254693        -2.226320
 H         1.823343         0.767117        -0.753231
 H         1.990371         0.425067         0.896881
 H         1.780020        -0.882487        -0.086468
 H        -2.765623         1.358154         0.125572
 H        -2.570362        -1.257313         1.205260
 H        -3.451038        -1.413994        -1.263499
 H        -5.481082        -0.484549        -1.719657
 H        -5.359826         1.181244        -1.122937
 H        -4.203323         0.463577        -3.701408
 H        -3.670180         1.908432        -2.705077
