19
Iteration:  2470
 C         1.495870        -0.452914         0.242081
 C         0.093106         0.047698         0.146205
 C        -1.014217         0.497220        -0.018348
 C        -2.435094         0.768208        -0.106825
 O        -3.063013         0.374461         1.058485
 C        -3.043862        -0.211768        -1.156228
 C        -4.640243         0.017605        -1.224926
 C        -4.401802         0.156738        -2.682813
 O        -2.995784         0.142451        -2.506285
 H         1.894699         0.369227         0.904224
 H         1.726095        -1.331894         0.931599
 H         2.009083        -0.564648        -0.669765
 H        -2.589402         1.815452        -0.305289
 H        -3.494272         1.181112         1.401228
 H        -2.732627        -1.239348        -0.905871
 H        -5.154197        -0.863408        -0.815209
 H        -5.106615         0.907947        -0.794974
 H        -4.662388        -0.713891        -3.325879
 H        -4.683544         1.061305        -3.127399
