19
Iteration:  1986charge 0 multiplicity 1
 C         1.601957        -0.367820         0.222900
 C         0.176645         0.142272         0.250010
 C        -0.995947         0.237713        -0.027652
 C        -2.480539         0.499195        -0.028224
 O        -3.218778         0.216845         1.219268
 C        -3.144844        -0.246547        -1.220715
 C        -4.666843        -0.065811        -1.383536
 C        -4.350839         0.533205        -2.743259
 O        -2.948814         0.333098        -2.538006
 H         1.999422        -0.901092        -0.695616
 H         2.172580         0.550335         0.317988
 H         1.823251        -0.898046         1.111517
 H        -2.621481         1.600247        -0.216698
 H        -3.099614         1.042081         1.787548
 H        -2.981417        -1.327636        -1.128693
 H        -5.028207        -1.122022        -1.314310
 H        -5.037336         0.542801        -0.532179
 H        -4.891379         0.041901        -3.625179
 H        -4.424809         1.648353        -2.915762
