19
Iteration:  1702charge 0 multiplicity 1
 C         1.308301        -0.210631        -0.029664
 C        -0.118923         0.025401        -0.077582
 C        -1.219892         0.445689         0.098630
 C        -2.646420         0.499856         0.168263
 O        -2.967600        -0.216385         1.415066
 C        -3.278635        -0.192791        -1.101558
 C        -4.735431         0.144619        -1.615089
 C        -3.870580         0.575254        -2.921869
 O        -2.689320         0.428976        -2.224494
 H         1.923962         0.665545        -0.434253
 H         1.616484        -0.264086         1.006351
 H         1.821745        -1.168294        -0.567670
 H        -2.983550         1.522581         0.524346
 H        -2.505846        -1.123045         1.229382
 H        -3.206442        -1.216204        -0.790492
 H        -5.354409        -0.743065        -1.627410
 H        -5.123811         1.024120        -1.082541
 H        -3.895254        -0.257169        -3.646353
 H        -4.132754         1.475756        -3.372502
