19
Iteration:  1689charge 0 multiplicity 1
 C         1.327472        -0.210030        -0.070706
 C        -0.126285         0.068066        -0.089394
 C        -1.220271         0.486836         0.075351
 C        -2.722866         0.506077         0.292413
 O        -2.946667        -0.277653         1.469528
 C        -3.298952        -0.119993        -1.023537
 C        -4.656937         0.187663        -1.680750
 C        -3.952382         0.525811        -2.954260
 O        -2.600771         0.371333        -2.232230
 H         1.957060         0.499169        -0.716552
 H         1.719523        -0.163710         1.014850
 H         1.373342        -1.291814        -0.458451
 H        -3.141871         1.455560         0.332194
 H        -2.684426        -1.161986         1.273561
 H        -3.035173        -1.165285        -1.127599
 H        -5.408940        -0.606065        -1.805263
 H        -5.243217         0.993446        -1.215897
 H        -4.103076        -0.168462        -3.816004
 H        -3.954690         1.541570        -3.317187
