19
Iteration:  2868charge 0 multiplicity 1
 C         1.428517        -0.305948        -0.261367
 C         0.057727         0.122091        -0.005836
 C        -1.165686         0.238614        -0.003784
 C        -2.573390         0.790459         0.115369
 O        -3.166745         0.753557         1.425043
 C        -3.378231        -0.155242        -0.870955
 C        -4.681808         0.250569        -1.586347
 C        -3.905483        -0.075570        -2.867286
 O        -2.728681        -0.276422        -2.188600
 H         1.852416        -1.000289         0.393445
 H         1.544208        -0.550052        -1.328611
 H         2.042405         0.608206        -0.116938
 H        -2.500537         1.928846        -0.024858
 H        -2.792584        -0.040197         1.836778
 H        -3.460424        -1.125612        -0.359749
 H        -5.533510        -0.415180        -1.232710
 H        -5.184279         1.314586        -1.611667
 H        -4.375201        -0.834068        -3.495501
 H        -3.736416         0.864343        -3.533543
