19
Iteration:  3488charge 0 multiplicity 1
 C         1.186743        -0.396770        -0.297965
 C        -0.031403         0.307148        -0.313484
 C        -1.185550         0.600684        -0.197597
 C        -2.598785         0.956805         0.052419
 O        -3.206778         0.950982         1.378838
 C        -3.349960        -0.216378        -0.752374
 C        -4.492464         0.390386        -1.549613
 C        -3.842524        -0.394844        -2.712865
 O        -2.626195        -0.702760        -1.947515
 H         1.527246        -0.624665         0.804340
 H         1.096962        -1.403458        -0.761746
 H         2.131304        -0.061980        -0.944142
 H        -2.856485         1.913679        -0.468951
 H        -2.553338         0.647403         2.018634
 H        -3.607813        -1.045731         0.041606
 H        -5.543840        -0.001714        -1.354729
 H        -4.360147         1.493941        -1.752889
 H        -4.380959        -1.232069        -3.048741
 H        -3.449120         0.146141        -3.629284
