19
Iteration:  4925charge 0 multiplicity 1
 C         1.508881        -0.427185         0.183787
 C         0.178276         0.015468         0.021410
 C        -0.961997         0.440828        -0.084747
 C        -2.316385         0.939634        -0.422150
 O        -2.866820         1.862927         0.457307
 C        -3.328613        -0.285823        -0.710280
 C        -4.732659         0.178369        -1.173037
 C        -4.420704        -0.608563        -2.458007
 O        -3.109203        -0.860907        -2.028641
 H         2.252138         0.138550        -0.404227
 H         1.724268        -0.509998         1.314373
 H         1.698210        -1.584328        -0.025264
 H        -2.381069         1.433039        -1.408276
 H        -2.814886         1.471166         1.392145
 H        -3.311318        -0.919391         0.179239
 H        -5.567603         0.008790        -0.487053
 H        -4.617854         1.290714        -1.204982
 H        -5.068545        -1.537181        -2.540346
 H        -4.507562        -0.076914        -3.442738
