19
Iteration:  4525charge 0 multiplicity 1
 C         1.415450        -0.204973         0.468335
 C         0.110740        -0.042452        -0.006694
 C        -0.937350         0.456802        -0.446073
 C        -2.300534         0.907528        -0.561144
 O        -2.547164         1.642202         0.736066
 C        -3.418148        -0.211464        -0.801142
 C        -4.897849         0.086820        -1.153185
 C        -4.403337        -0.432235        -2.577775
 O        -3.158046        -0.907954        -1.999362
 H         2.024349         0.611525         0.017691
 H         1.596371        -0.335942         1.531775
 H         1.796643        -1.187680         0.095755
 H        -2.371569         1.580691        -1.446507
 H        -2.459204         1.021216         1.454080
 H        -3.319188        -1.002465         0.056968
 H        -5.593211        -0.507017        -0.552176
 H        -5.232661         1.148663        -1.160902
 H        -4.949986        -1.327703        -2.956901
 H        -4.120566         0.301817        -3.377147
