19
Iteration:   668
 C         1.541595        -0.369089         0.307281
 C         0.108095         0.067121         0.311775
 C        -1.027557         0.472080         0.072539
 C        -2.489671         0.380990         0.052754
 O        -3.072161        -0.405498         1.160372
 C        -3.091011        -0.119156        -1.402716
 C        -4.609635        -0.229831        -1.559654
 C        -4.406219         0.916792        -2.607773
 O        -2.990473         0.812942        -2.528908
 H         2.082828        -0.257663         1.306221
 H         1.615709        -1.474576         0.007344
 H         1.964847         0.300442        -0.380893
 H        -2.989635         1.350364         0.290887
 H        -2.581183        -1.224469         1.069863
 H        -2.670924        -1.095629        -1.479249
 H        -4.885681        -1.202480        -2.039460
 H        -5.281077        -0.063162        -0.720359
 H        -4.912160         0.642750        -3.472216
 H        -4.739389         1.855332        -2.250478
