19
Iteration:  1329charge 0 multiplicity 1
 C         1.648539        -0.186633         0.424606
 C         0.204610         0.009772         0.143082
 C        -1.037208         0.009919         0.136792
 C        -2.384894         0.376933        -0.152958
 O        -3.220892        -0.056473         0.954375
 C        -3.167406        -0.275787        -1.354279
 C        -4.686942        -0.060219        -1.291066
 C        -4.418470         0.762525        -2.586856
 O        -2.978617         0.647508        -2.499866
 H         2.190352         0.834519         0.329531
 H         1.793706        -0.498916         1.385512
 H         2.158929        -0.769918        -0.386607
 H        -2.421200         1.537891        -0.158475
 H        -2.864699         0.138891         1.890418
 H        -3.025353        -1.333607        -1.591083
 H        -5.205581        -1.004672        -1.343028
 H        -5.080708         0.624914        -0.553888
 H        -4.787087         0.311250        -3.490506
 H        -4.562842         1.824636        -2.670564
