19
Iteration:  3799
 C         1.642922        -0.441984         0.421013
 C         0.226574         0.155280         0.343163
 C        -0.869908         0.427945        -0.157517
 C        -2.258346         0.853771        -0.450033
 O        -2.976223         1.427358         0.701027
 C        -3.142283        -0.297999        -1.029625
 C        -4.693504        -0.087726        -0.989029
 C        -4.701087        -0.339972        -2.484016
 O        -3.156149        -0.384643        -2.477100
 H         2.313939         0.237624         1.026938
 H         1.558601        -1.441366         0.945483
 H         2.161750        -0.587650        -0.470207
 H        -2.321546         1.517091        -1.356631
 H        -3.930360         1.217970         0.780847
 H        -2.893631        -1.233002        -0.561504
 H        -5.292157        -0.849252        -0.429031
 H        -4.975022         0.926763        -0.658473
 H        -5.009776        -1.289574        -2.847664
 H        -5.031755         0.372229        -3.345825
