19
Iteration:  4833charge 0 multiplicity 1
 C         1.297875        -0.636980        -0.064457
 C        -0.016877         0.029683         0.067518
 C        -1.003463         0.658677        -0.163641
 C        -2.403843         1.066433        -0.455465
 O        -2.917946         1.786208         0.733838
 C        -3.235394        -0.204052        -0.677312
 C        -4.594120         0.140124        -1.249851
 C        -4.247762        -0.670305        -2.477572
 O        -2.915068        -0.911012        -1.890216
 H         1.317542        -1.210421        -1.077046
 H         2.015229         0.144741         0.203196
 H         1.351296        -1.366777         0.831999
 H        -2.369170         1.734291        -1.331851
 H        -3.229725         2.642396         0.556135
 H        -3.104467        -0.957302         0.202692
 H        -5.369995        -0.313383        -0.625911
 H        -4.929778         1.138764        -1.393836
 H        -4.813964        -1.566125        -2.667384
 H        -4.177549        -0.077849        -3.410503
