19
Iteration:   261
 C         1.411943        -0.049523        -0.106744
 C        -0.024424         0.166902        -0.023497
 C        -1.188238         0.055242         0.332566
 C        -2.579840         0.106567         0.117329
 O        -3.259700        -0.926902         0.931397
 C        -3.115132        -0.088851        -1.238794
 C        -4.591762         0.086623        -1.477948
 C        -4.093879         1.052240        -2.669844
 O        -2.699237         1.055701        -2.062983
 H         1.890045         0.719122         0.409022
 H         1.685117        -1.009271         0.427892
 H         1.865520        -0.189350        -1.129403
 H        -2.940928         1.020774         0.616049
 H        -2.673344        -1.314193         1.621702
 H        -2.752219        -1.006071        -1.719150
 H        -5.089079        -0.873878        -1.773177
 H        -4.918128         0.667134        -0.595340
 H        -3.997427         0.684660        -3.717592
 H        -4.646489         2.049159        -2.696101
