19
Iteration:  3053
 C         1.625116        -0.214712         0.245500
 C         0.186902        -0.058783        -0.100663
 C        -0.999497         0.275427         0.010643
 C        -2.403567         0.700098        -0.128093
 O        -3.129290         1.092689         1.197918
 C        -3.221877        -0.329879        -1.035032
 C        -4.735682        -0.078157        -1.298796
 C        -4.388494        -0.099250        -2.758589
 O        -2.931422        -0.074652        -2.418088
 H         2.031231         0.879822         0.096967
 H         1.888781        -0.684502         1.301727
 H         2.079630        -0.867405        -0.503221
 H        -2.379166         1.690682        -0.550734
 H        -3.790148         0.469339         1.412572
 H        -2.940337        -1.326610        -0.520184
 H        -5.398278        -0.824965        -0.857459
 H        -5.108349         0.826422        -0.805249
 H        -4.607601        -0.895500        -3.434546
 H        -4.647485         0.883868        -3.312503
