19
Iteration:   645
 C         1.561604        -0.233225         0.333209
 C         0.093142        -0.004167         0.332912
 C        -1.073240         0.315304         0.126604
 C        -2.481480         0.441059        -0.052448
 O        -3.087256        -0.394085         0.903389
 C        -3.029027        -0.135670        -1.377506
 C        -4.610876        -0.189060        -1.407352
 C        -4.427852         0.981349        -2.532506
 O        -2.981917         0.705918        -2.473180
 H         2.067318         0.214084         1.207456
 H         1.669350        -1.388041         0.549461
 H         2.012679         0.135890        -0.594195
 H        -3.024988         1.372095         0.187481
 H        -2.788808        -1.307552         0.660416
 H        -2.517111        -1.105746        -1.492675
 H        -5.056423        -1.180284        -1.676708
 H        -5.196088         0.192717        -0.567936
 H        -4.944713         0.733507        -3.467439
 H        -4.593633         2.006469        -2.243203
