19
Iteration:  2782charge 0 multiplicity 1
 C         1.478180        -0.207358        -0.249160
 C         0.086716         0.012110         0.040782
 C        -1.098411         0.274910         0.252616
 C        -2.463134         0.702962        -0.031606
 O        -3.180399         0.685381         1.202947
 C        -3.300746        -0.250803        -0.906480
 C        -4.708241         0.215541        -1.423038
 C        -4.010938         0.297923        -2.838135
 O        -2.815734        -0.424033        -2.198996
 H         2.193744         0.478695         0.227423
 H         1.558535        -1.221367         0.190137
 H         1.828272        -0.373947        -1.421489
 H        -2.527307         1.776076        -0.281163
 H        -4.137066         0.869998         0.884683
 H        -3.232726        -1.134381        -0.206066
 H        -5.499688        -0.544416        -1.213497
 H        -5.008969         1.254900        -0.996555
 H        -4.453277        -0.258661        -3.638143
 H        -3.671270         1.180332        -3.203210
