19
Iteration:  1804
 C         1.618511        -0.098751         0.219565
 C         0.192122        -0.149981         0.369747
 C        -0.983744         0.096843         0.088624
 C        -2.443180         0.475331        -0.063380
 O        -3.384446         0.020711         1.024021
 C        -3.092073        -0.242735        -1.311590
 C        -4.572392         0.012893        -1.211428
 C        -4.391401         0.642550        -2.703479
 O        -2.950502         0.476598        -2.584103
 H         2.041012         0.127878         1.215028
 H         2.242040        -1.012155         0.101141
 H         2.085874         0.568787        -0.658968
 H        -2.516349         1.532189        -0.321998
 H        -2.967215         0.332966         1.806643
 H        -2.767830        -1.263171        -1.420834
 H        -5.225364        -0.881701        -1.117692
 H        -4.953360         0.726436        -0.484255
 H        -4.939252         0.119342        -3.479938
 H        -4.675302         1.714856        -2.815264
