19
Iteration:  4326
 C         1.518631        -0.435957         0.288664
 C         0.119001        -0.068581         0.033288
 C        -0.940452         0.510435        -0.083394
 C        -2.311213         1.083942        -0.455423
 O        -3.023614         1.681154         0.651957
 C        -3.138029        -0.199578        -0.874358
 C        -4.627517         0.029191        -1.064926
 C        -4.564336        -0.573502        -2.387715
 O        -3.025596        -0.688621        -2.338915
 H         1.454650        -1.389999         0.973673
 H         2.085881        -0.761865        -0.599079
 H         2.064226         0.152790         0.991875
 H        -2.307165         1.926731        -1.148400
 H        -3.114695         1.023325         1.394116
 H        -2.872874        -1.175370        -0.315572
 H        -5.347810        -0.425156        -0.361766
 H        -4.929276         1.083083        -1.207643
 H        -5.069758        -1.590822        -2.380830
 H        -4.936230        -0.088515        -3.319780
