19
Iteration:  3155charge 0 multiplicity 1
 C         1.557662        -0.304600         0.630985
 C         0.284970         0.196938        -0.125614
 C        -0.954897         0.421531        -0.167817
 C        -2.379121         0.812997        -0.414766
 O        -2.958573         0.736519         0.947487
 C        -3.177054        -0.338916        -1.053776
 C        -4.748683        -0.014444        -1.076404
 C        -4.475644         0.156272        -2.590492
 O        -3.117029        -0.377557        -2.472871
 H         1.469122        -0.490860         1.676964
 H         1.963076        -1.189563         0.225642
 H         2.191351         0.657869         0.583954
 H        -2.683276         1.660175        -1.012324
 H        -3.416660         1.596099         1.276431
 H        -2.814621        -1.240987        -0.552752
 H        -5.408820        -0.856733        -0.788947
 H        -5.085985         0.919402        -0.685922
 H        -4.975625        -0.493138        -3.349771
 H        -4.402160         1.291889        -2.884456
