19
Iteration:  4867
 C         1.389684        -0.496723        -0.072272
 C         0.039504        -0.119686         0.169813
 C        -1.063961         0.467468         0.034061
 C        -2.356440         0.974632        -0.411684
 O        -2.823516         1.982798         0.574846
 C        -3.279538        -0.213095        -0.697869
 C        -4.756690         0.085567        -1.229625
 C        -4.312488        -0.625840        -2.464025
 O        -2.934307        -0.834475        -1.976297
 H         1.884585        -0.459254        -1.095761
 H         2.140678         0.122385         0.431960
 H         1.633326        -1.561940         0.302509
 H        -2.152071         1.459387        -1.402696
 H        -3.766134         2.125294         0.498050
 H        -3.257244        -1.032611         0.115606
 H        -5.319744        -0.502424        -0.511145
 H        -5.056467         1.079511        -1.303652
 H        -4.751527        -1.607837        -2.604402
 H        -4.234829        -0.080642        -3.413704
