19
Iteration:   856charge 0 multiplicity 1
 C         1.495538         0.065949         0.020159
 C         0.033660        -0.029165        -0.114881
 C        -1.156104         0.096530         0.101930
 C        -2.598999         0.255218         0.229400
 O        -3.273031        -0.382729         1.397416
 C        -3.190722        -0.129257        -1.203282
 C        -4.656306         0.283279        -1.459391
 C        -4.037606         0.713869        -2.847232
 O        -2.682808         0.519293        -2.407699
 H         2.072204         0.041522        -1.000924
 H         1.742054         0.950228         0.622259
 H         1.729688        -0.788150         0.657553
 H        -3.057202         1.211620         0.433268
 H        -2.727770        -1.080872         1.669120
 H        -3.152455        -1.260076        -1.302789
 H        -5.440850        -0.480528        -1.524157
 H        -5.053212         1.057390        -0.737989
 H        -4.176189         0.089419        -3.822510
 H        -4.405954         1.751472        -3.016359
