19
Iteration:   341charge 0 multiplicity 1
 C         1.289715         0.154451        -0.376073
 C        -0.052492         0.061335         0.151554
 C        -1.233262        -0.050912         0.320346
 C        -2.668340         0.059192         0.227610
 O        -3.243198        -0.869620         1.189663
 C        -3.061902        -0.124009        -1.227194
 C        -4.502794         0.132124        -1.628570
 C        -3.924436         0.999427        -2.747652
 O        -2.621289         0.980072        -2.029073
 H         2.155673        -0.211532         0.319495
 H         1.252487        -0.441422        -1.298221
 H         1.506130         1.163955        -0.525226
 H        -3.044684         1.033425         0.681856
 H        -4.195539        -0.949758         1.119941
 H        -2.749499        -1.098943        -1.657992
 H        -5.089099        -0.717089        -1.920996
 H        -5.103398         0.672770        -0.972005
 H        -3.895999         0.700376        -3.785947
 H        -4.243731         2.050426        -2.616134
