19
Iteration:  1081
 C         1.452454        -0.008182        -0.078067
 C         0.033074        -0.102703        -0.048264
 C        -1.131661         0.082895         0.221414
 C        -2.566995         0.409395         0.110054
 O        -3.383624        -0.079392         1.177649
 C        -3.121859        -0.266777        -1.163979
 C        -4.656291         0.038381        -1.424846
 C        -4.028196         0.695985        -2.722866
 O        -2.670664         0.526904        -2.267337
 H         1.929800        -0.712218         0.525937
 H         1.827241        -0.168773        -1.163488
 H         1.626756         1.105081         0.142639
 H        -2.806731         1.522626         0.204059
 H        -2.966141        -0.969604         1.463827
 H        -2.873285        -1.326124        -1.218554
 H        -5.283456        -0.803052        -1.596764
 H        -5.123755         0.750574        -0.765388
 H        -4.185552         0.223004        -3.677173
 H        -4.136952         1.789693        -2.664101
