19
Iteration:  2283charge 0 multiplicity 1
 C         1.478114        -0.099565        -0.256293
 C         0.103704         0.061680         0.085405
 C        -1.113113         0.162301         0.259237
 C        -2.490745         0.536100         0.026947
 O        -3.351068         0.303255         1.226343
 C        -3.280987        -0.288207        -0.973901
 C        -4.637201         0.326137        -1.326810
 C        -3.980590         0.387219        -2.763377
 O        -2.689777        -0.127827        -2.356264
 H         1.623381        -1.120460        -0.569531
 H         1.656997         0.298249        -1.186560
 H         2.170427         0.233333         0.429784
 H        -2.580461         1.660676        -0.244724
 H        -4.242431         0.612195         1.131863
 H        -3.387099        -1.341663        -0.678207
 H        -5.598720        -0.190539        -1.289126
 H        -4.801307         1.318963        -0.850673
 H        -4.555768        -0.006968        -3.671213
 H        -3.666089         1.446128        -3.061907
