19
Iteration:  1722
 C         1.436260        -0.164054         0.051443
 C        -0.041415        -0.022276        -0.017960
 C        -1.197596         0.364877        -0.028306
 C        -2.639637         0.442862         0.151940
 O        -3.120529        -0.166576         1.337856
 C        -3.261161        -0.169187        -1.091630
 C        -4.671258         0.118005        -1.550701
 C        -4.058601         0.544375        -2.851895
 O        -2.656247         0.490697        -2.231414
 H         2.092044         0.757430        -0.180129
 H         1.727703        -0.714744         0.990552
 H         1.804567        -0.923776        -0.761204
 H        -2.922436         1.445757         0.080971
 H        -2.384491        -0.706404         1.608793
 H        -2.986584        -1.282286        -1.175627
 H        -5.373305        -0.710507        -1.637906
 H        -5.081147         1.048828        -1.121306
 H        -4.137924        -0.243990        -3.648320
 H        -4.203084         1.534523        -3.270761
