19
Iteration:  2180
 C         1.366298        -0.193790        -0.188015
 C        -0.050004         0.115039        -0.060908
 C        -1.242065         0.349606        -0.083940
 C        -2.637909         0.550556         0.215920
 O        -3.054923        -0.027690         1.532661
 C        -3.403608        -0.144285        -0.907734
 C        -4.646788         0.440859        -1.622597
 C        -3.814375         0.302368        -2.958247
 O        -2.635370         0.013539        -2.205824
 H         1.879339         0.056645         0.672427
 H         1.353806        -1.191796        -0.605387
 H         1.925839         0.259685        -0.960198
 H        -2.965383         1.646341         0.154581
 H        -3.105012         0.798408         2.126371
 H        -3.640633        -1.208906        -0.712393
 H        -5.518708        -0.212159        -1.588071
 H        -4.937153         1.433657        -1.318484
 H        -4.049066        -0.757251        -3.445776
 H        -3.839522         1.106384        -3.737991
