19
Iteration:    82
 C         1.556442        -0.035467         0.404919
 C         0.135633        -0.094104         0.228511
 C        -1.038769         0.085235        -0.047870
 C        -2.446662         0.090250        -0.131099
 O        -2.869262        -0.963013         0.839999
 C        -3.255966        -0.247182        -1.443686
 C        -4.763305         0.109085        -1.511763
 C        -4.426562         1.451003        -2.246399
 O        -2.983885         0.934595        -2.401423
 H         2.044263        -0.992023         0.215768
 H         2.118854         0.771627        -0.099534
 H         1.872209        -0.080065         1.647434
 H        -2.787241         1.110425         0.274304
 H        -3.146435        -0.585011         1.689294
 H        -2.945919        -1.208430        -1.886190
 H        -5.551855        -0.561004        -1.907577
 H        -5.143058         0.405836        -0.483188
 H        -4.665656         1.689795        -3.352828
 H        -4.361878         2.339545        -1.638309
