19
Iteration:  4095
 C         1.351126        -0.323220        -0.219730
 C         0.016801        -0.167737         0.044684
 C        -1.015885         0.490225         0.037698
 C        -2.348638         0.885828        -0.280086
 O        -3.047727         1.600700         0.750586
 C        -3.298689        -0.207458        -0.658573
 C        -4.654032         0.251371        -1.378240
 C        -3.940936        -0.213119        -2.578376
 O        -3.057975        -1.040596        -1.824679
 H         1.728081         0.481319        -0.996563
 H         1.963814        -0.136034         0.730716
 H         1.569843        -1.307533        -0.556396
 H        -2.380834         1.601986        -1.195352
 H        -3.741116         0.984329         1.111337
 H        -3.528395        -0.970209         0.142638
 H        -5.553304        -0.325286        -1.176564
 H        -4.878470         1.321563        -1.433933
 H        -4.550212        -0.850419        -3.229904
 H        -3.345197         0.410339        -3.273529
