19
Iteration:  4460charge 0 multiplicity 1
 C         1.468090        -0.283349         0.565964
 C         0.208006         0.227600        -0.047810
 C        -0.912254         0.458402        -0.420821
 C        -2.302437         0.785290        -0.626519
 O        -2.910645         1.422340         0.522403
 C        -3.290590        -0.388652        -0.775599
 C        -4.658467         0.218993        -0.955127
 C        -4.474051        -0.307775        -2.479273
 O        -3.163810        -0.846106        -2.090641
 H         2.027020        -0.582818        -0.287738
 H         1.945891         0.337889         1.314137
 H         1.298985        -1.319159         1.036572
 H        -2.350779         1.464523        -1.484050
 H        -2.105416         1.682858         0.950574
 H        -3.231708        -1.099730         0.130331
 H        -5.573394        -0.073304        -0.490237
 H        -4.742448         1.284246        -0.795625
 H        -5.210369        -1.120510        -2.592536
 H        -4.418154         0.444150        -3.311854
