19
Iteration:  4348charge 0 multiplicity 1
 C         1.430007        -0.409154         0.273912
 C         0.135159         0.028096         0.041826
 C        -1.013274         0.430167        -0.030915
 C        -2.305456         0.806977        -0.437047
 O        -2.896211         1.735833         0.520891
 C        -3.240062        -0.315861        -0.864660
 C        -4.691812         0.004141        -0.949488
 C        -4.487147        -0.564849        -2.470920
 O        -3.028079        -0.496298        -2.266762
 H         1.598564        -1.409715         0.790461
 H         2.060513        -0.217682        -0.611630
 H         1.820210         0.149071         1.103237
 H        -2.227639         1.529538        -1.232074
 H        -2.481478         1.618992         1.378657
 H        -3.158145        -1.351743        -0.286561
 H        -5.401357        -0.448800        -0.242109
 H        -5.004808         1.043081        -1.096729
 H        -4.749796        -1.660860        -2.665849
 H        -4.687161        -0.051977        -3.445574
