19
Iteration:  1844
 C         1.604863        -0.196471         0.493640
 C         0.175192        -0.014111         0.109584
 C        -1.055971         0.122399        -0.062673
 C        -2.402216         0.419085        -0.149836
 O        -3.066298         0.189099         1.185004
 C        -3.192097        -0.266926        -1.266957
 C        -4.741495        -0.133067        -1.389663
 C        -4.429548         0.673450        -2.676404
 O        -3.002323         0.491894        -2.547534
 H         1.574794        -0.492579         1.578665
 H         2.118763        -0.961576        -0.025079
 H         2.154572         0.811492         0.435445
 H        -2.575302         1.570232        -0.238115
 H        -2.388149        -0.340845         1.724969
 H        -2.795496        -1.337591        -1.352048
 H        -5.172556        -1.127566        -1.486535
 H        -5.109357         0.473892        -0.513023
 H        -4.724512         0.285356        -3.739988
 H        -4.587596         1.739358        -2.759543
