19
Iteration:   527charge 0 multiplicity 1
 C         1.441719         0.170621         0.376884
 C         0.078238        -0.001061         0.004813
 C        -1.142897         0.063761         0.029955
 C        -2.589182         0.068132        -0.022785
 O        -3.014131        -0.737045         1.105498
 C        -3.259234        -0.284826        -1.311739
 C        -4.684967         0.254549        -1.435002
 C        -4.146894         1.141020        -2.617578
 O        -2.839857         0.639678        -2.393773
 H         1.995640         0.641589        -0.456989
 H         1.541812         0.823741         1.179552
 H         1.903373        -0.716976         0.473103
 H        -2.746730         1.091475        -0.020391
 H        -2.320913        -0.565152         1.687495
 H        -3.110991        -1.338755        -1.585209
 H        -5.392127        -0.559790        -1.695826
 H        -5.112528         0.809998        -0.590061
 H        -4.444196         0.916438        -3.635857
 H        -4.103766         2.246557        -2.514814
