19
Iteration:  2366
 C         1.474302        -0.283360         0.097787
 C         0.017622        -0.037361        -0.023027
 C        -1.101706         0.376616        -0.211910
 C        -2.607358         0.604252         0.006244
 O        -3.015652         0.502273         1.332576
 C        -3.217343        -0.277854        -1.013240
 C        -4.729431        -0.089569        -1.431921
 C        -4.126108         0.400713        -2.725616
 O        -2.753331         0.086264        -2.319803
 H         1.895311        -0.482031        -0.893817
 H         1.796155         0.588758         0.757248
 H         1.792229        -1.298010         0.572561
 H        -2.667945         1.662864        -0.353697
 H        -3.976736         0.759550         1.550350
 H        -2.979548        -1.344966        -0.812913
 H        -5.331320        -0.991039        -1.614790
 H        -5.248430         0.645334        -0.821781
 H        -4.515639         0.040992        -3.613318
 H        -4.061018         1.444839        -2.820095
