19
Iteration:    85
 C         1.562129        -0.037075         0.430222
 C         0.158157        -0.098604         0.247473
 C        -1.011377         0.101391        -0.038761
 C        -2.450308         0.086781        -0.138885
 O        -2.894946        -0.981945         0.853474
 C        -3.262376        -0.234223        -1.453642
 C        -4.761014         0.119390        -1.521334
 C        -4.446593         1.441543        -2.239472
 O        -2.985686         0.937794        -2.443668
 H         2.135700        -1.036929         0.054541
 H         2.085075         0.826242        -0.094055
 H         1.909641        -0.098516         1.581824
 H        -2.777683         1.102291         0.250544
 H        -3.039709        -0.564555         1.800098
 H        -2.971588        -1.221826        -1.878647
 H        -5.588548        -0.483062        -1.859184
 H        -5.168818         0.357437        -0.429722
 H        -4.675649         1.607820        -3.270639
 H        -4.370244         2.408632        -1.632036
