19
Iteration:  1377charge 0 multiplicity 1
 C         1.505164        -0.137024         0.402095
 C         0.061967        -0.055512         0.135806
 C        -1.085566         0.220763        -0.082896
 C        -2.551959         0.418818        -0.084561
 O        -2.903302        -0.138297         1.191871
 C        -3.262217        -0.270706        -1.237917
 C        -4.807134        -0.031175        -1.475727
 C        -4.269933         0.888681        -2.639354
 O        -2.877024         0.405542        -2.503148
 H         1.957344         0.606048         0.999044
 H         1.726610        -1.098161         1.048004
 H         2.115225        -0.006859        -0.531596
 H        -2.642183         1.534163         0.016619
 H        -2.289261         0.183577         1.833693
 H        -2.861745        -1.263745        -1.403842
 H        -5.270923        -0.958676        -1.858594
 H        -5.390452         0.521602        -0.732340
 H        -4.634705         0.605040        -3.607138
 H        -4.400985         1.946943        -2.473109
