19
Iteration:  3614
 C         1.571773        -0.147809         0.029934
 C         0.198179         0.133182        -0.050712
 C        -1.016309         0.307507         0.000341
 C        -2.401516         0.748012        -0.194221
 O        -3.243382         1.253235         0.946761
 C        -3.323451        -0.370623        -0.797236
 C        -4.658563         0.286393        -1.271891
 C        -4.223628        -0.207327        -2.671064
 O        -2.955567        -0.722170        -2.243705
 H         1.869078        -1.161106        -0.385253
 H         2.305226         0.708497        -0.263293
 H         1.821332        -0.474128         1.016864
 H        -2.351803         1.553455        -0.959405
 H        -2.811515         1.075067         1.846729
 H        -3.297425        -1.415106        -0.218798
 H        -5.531217        -0.093592        -0.739755
 H        -4.615223         1.354052        -1.056948
 H        -4.944920        -0.928632        -3.152621
 H        -4.116948         0.653975        -3.354427
