19
Iteration:  2005
 C         1.577195        -0.210025         0.206871
 C         0.156242        -0.072079         0.116852
 C        -1.069214         0.176929         0.156847
 C        -2.495581         0.525487        -0.051529
 O        -3.172413         0.290168         1.195539
 C        -3.182469        -0.296004        -1.170726
 C        -4.742054        -0.100212        -1.404408
 C        -4.312570         0.525855        -2.743241
 O        -2.851722         0.384520        -2.478283
 H         1.983939        -0.529371        -0.841102
 H         2.248529         0.741203         0.424176
 H         1.752491        -1.166520         0.695931
 H        -2.590079         1.535964        -0.277060
 H        -2.760918         0.913358         1.803309
 H        -2.870016        -1.329255        -1.209442
 H        -5.425270        -0.962929        -1.419944
 H        -5.105769         0.761843        -0.817029
 H        -4.460415        -0.106997        -3.534180
 H        -4.659592         1.511282        -3.097654
