19
Iteration:  3608charge 0 multiplicity 1
 C         1.563120        -0.121971        -0.040536
 C         0.146660         0.092599        -0.076491
 C        -1.020361         0.316960         0.070874
 C        -2.418515         0.696020        -0.150453
 O        -3.231908         1.253973         0.946073
 C        -3.307516        -0.413047        -0.780806
 C        -4.688694         0.322320        -1.290314
 C        -4.180871        -0.213530        -2.697590
 O        -2.921675        -0.690141        -2.235700
 H         1.811276        -1.116771        -0.354810
 H         2.280753         0.565235        -0.301773
 H         1.705160        -0.230044         1.123704
 H        -2.527247         1.437339        -0.955952
 H        -2.587832         1.189570         1.664284
 H        -3.353444        -1.206758        -0.113218
 H        -5.623724        -0.056013        -0.840693
 H        -4.415708         1.384216        -1.077430
 H        -4.975329        -0.981859        -2.978612
 H        -4.079909         0.601376        -3.423819
