19
Iteration:  4707
 C         1.394586        -0.530961        -0.023972
 C         0.028290        -0.028781        -0.081942
 C        -1.120453         0.432872        -0.179060
 C        -2.441842         1.154406        -0.377765
 O        -2.857411         1.736368         0.875327
 C        -3.401449        -0.000451        -0.729689
 C        -4.771668         0.189597        -1.485040
 C        -4.138832        -0.852422        -2.534928
 O        -2.867953        -0.758337        -1.762273
 H         1.287479        -1.425876         0.686413
 H         1.664734        -1.067492        -1.022633
 H         2.159590         0.246811         0.205060
 H        -2.339009         1.958242        -1.165310
 H        -2.273310         1.252014         1.485083
 H        -3.620180        -0.578234         0.279029
 H        -5.613309        -0.319766        -0.925018
 H        -4.984037         1.236413        -1.783661
 H        -4.462962        -1.925759        -2.535158
 H        -3.885721        -0.610125        -3.546586
