19
Iteration:  3285charge 0 multiplicity 1
 C         1.496166        -0.293107         0.031297
 C         0.132972         0.142088         0.037407
 C        -1.060407         0.364195         0.139221
 C        -2.420648         0.731695        -0.134759
 O        -3.057255         0.979668         1.065217
 C        -3.245605        -0.315916        -0.912976
 C        -4.668514         0.171908        -1.232723
 C        -4.284492        -0.048986        -2.749642
 O        -2.929723        -0.461784        -2.396993
 H         1.862490        -0.961092        -0.777123
 H         2.144003         0.597922         0.399092
 H         1.774222        -1.006619         0.919662
 H        -2.398145         1.633671        -0.836242
 H        -3.572452         1.781457         0.969276
 H        -2.980185        -1.392617        -0.490803
 H        -5.509982        -0.430844        -0.911360
 H        -4.900294         1.183454        -0.924740
 H        -4.878624        -0.778253        -3.271056
 H        -4.231491         0.824313        -3.371629
