19
Iteration:  3495
 C         1.261833        -0.408123        -0.293203
 C        -0.045020         0.260788        -0.305078
 C        -1.230677         0.581971        -0.198145
 C        -2.617028         0.884677         0.058380
 O        -3.196301         0.978571         1.357069
 C        -3.287513        -0.205021        -0.788604
 C        -4.492652         0.360164        -1.597981
 C        -3.860614        -0.360472        -2.706296
 O        -2.670792        -0.685714        -1.916294
 H         1.569952        -0.587409         0.667278
 H         1.061423        -1.264696        -0.920787
 H         2.089284         0.235835        -0.707547
 H        -2.815543         1.931943        -0.304885
 H        -2.667366         0.929108         2.125266
 H        -3.611908        -0.892963        -0.095048
 H        -5.422707         0.069548        -1.135154
 H        -4.388997         1.430624        -1.694136
 H        -4.309419        -1.373362        -2.980823
 H        -3.463019         0.229827        -3.491728
