19
Iteration:  3081charge 0 multiplicity 1
 C         1.621499        -0.228590         0.304729
 C         0.204091         0.100727         0.150148
 C        -1.012024         0.223773        -0.031181
 C        -2.392800         0.663069        -0.210551
 O        -2.990089         1.056151         1.041344
 C        -3.260773        -0.282542        -1.025555
 C        -4.763604        -0.098694        -1.254702
 C        -4.413162        -0.009158        -2.706021
 O        -3.032615        -0.143410        -2.484281
 H         2.144104         0.612484         0.706710
 H         1.841517        -1.087888         0.870331
 H         2.015714        -0.260768        -0.723170
 H        -2.320345         1.709964        -0.656511
 H        -3.328400         0.290250         1.504793
 H        -3.013522        -1.235859        -0.597274
 H        -5.210432        -1.072199        -0.980079
 H        -5.296394         0.665195        -0.681927
 H        -4.789724        -0.824063        -3.410833
 H        -4.568152         0.953922        -3.146886
