19
Iteration:  3451
 C         1.142307        -0.469101        -0.340823
 C        -0.042477         0.268856        -0.120594
 C        -1.113066         0.856942        -0.052295
 C        -2.521272         1.022974         0.081583
 O        -2.982011         0.908997         1.465493
 C        -3.411521        -0.089132        -0.777719
 C        -4.645238         0.284560        -1.701565
 C        -3.815672        -0.492740        -2.863470
 O        -2.674104        -0.713949        -1.953881
 H         1.899972        -0.186790         0.350413
 H         0.736083        -1.469807        -0.150206
 H         1.576218        -0.282954        -1.386630
 H        -2.857406         2.038449        -0.305356
 H        -2.980229        -0.019433         1.565607
 H        -3.665754        -0.940572        -0.218644
 H        -5.583678        -0.192136        -1.440785
 H        -4.931872         1.299576        -1.943118
 H        -4.334664        -1.425392        -3.243740
 H        -3.554028         0.242094        -3.557372
