19
Iteration:  3555charge 0 multiplicity 1
 C         1.497344        -0.144564        -0.285196
 C         0.095047         0.007164         0.128235
 C        -1.142450         0.157983         0.003635
 C        -2.461583         0.865351        -0.019337
 O        -3.124182         1.164379         1.260874
 C        -3.432812        -0.145510        -0.821798
 C        -4.696461         0.249344        -1.606845
 C        -4.009566        -0.349318        -2.796732
 O        -2.801555        -0.630110        -2.029995
 H         1.825371        -1.262707        -0.255546
 H         1.474015        -0.069117        -1.419831
 H         2.129588         0.728210         0.028154
 H        -2.440778         1.823005        -0.621803
 H        -2.831094         2.045130         1.543445
 H        -3.636222        -0.984145        -0.111990
 H        -5.555982        -0.311597        -1.159651
 H        -4.999790         1.328323        -1.511290
 H        -4.561996        -1.128716        -3.205437
 H        -3.874635         0.350714        -3.650216
