19
Iteration:   211charge 0 multiplicity 1
 C         1.515548        -0.044708         0.188031
 C         0.094944        -0.072594         0.171441
 C        -1.094968         0.031710        -0.066688
 C        -2.543362         0.094386         0.110923
 O        -2.910304        -0.950709         1.022561
 C        -3.215215        -0.075602        -1.255822
 C        -4.841494         0.124986        -1.666870
 C        -4.221645         1.169682        -2.582751
 O        -2.866307         1.049689        -2.163100
 H         1.901388         0.973125        -0.202345
 H         1.958803        -0.191639         1.171312
 H         1.874042        -0.827218        -0.389484
 H        -2.776484         1.021898         0.612986
 H        -3.675658        -0.654308         1.643092
 H        -2.700677        -0.895808        -1.769919
 H        -5.230556        -0.816474        -2.089485
 H        -5.466592         0.625026        -0.916007
 H        -4.254431         1.039660        -3.678095
 H        -4.613040         2.154718        -2.381296
