19
Iteration:  4641
 C         1.433916        -0.455398        -0.085439
 C         0.105499         0.121645         0.159810
 C        -1.021402         0.511378        -0.048140
 C        -2.320506         0.943411        -0.360609
 O        -3.037685         1.547532         0.731075
 C        -3.308188        -0.140839        -0.792345
 C        -4.635531         0.438892        -1.396944
 C        -4.320812        -0.693918        -2.480009
 O        -2.963967        -0.991014        -1.902634
 H         1.892130        -0.494674         0.946533
 H         1.328579        -1.518324        -0.435472
 H         2.059710        -0.093082        -0.889155
 H        -2.317394         1.725318        -1.160838
 H        -2.581603         2.344224         1.094773
 H        -3.481602        -0.859554         0.066799
 H        -5.423398         0.479824        -0.614444
 H        -4.527195         1.444584        -1.820429
 H        -4.996268        -1.528881        -2.385313
 H        -4.213957        -0.343024        -3.477813
