19
Iteration:  4919
 C         1.502427        -0.457191         0.185252
 C         0.180966         0.013580        -0.028028
 C        -0.951417         0.412115        -0.039434
 C        -2.320799         0.935016        -0.409717
 O        -2.869139         1.866853         0.428011
 C        -3.404757        -0.254686        -0.672463
 C        -4.717660         0.182493        -1.168668
 C        -4.441034        -0.613169        -2.465506
 O        -3.055794        -0.831218        -2.019338
 H         2.201547         0.094280        -0.443407
 H         1.944722        -0.420230         1.193520
 H         1.747166        -1.447356        -0.005043
 H        -2.141739         1.448382        -1.384593
 H        -3.139914         1.523378         1.318892
 H        -3.309581        -1.020023         0.149024
 H        -5.536588        -0.225187        -0.547727
 H        -4.799032         1.290388        -1.199449
 H        -4.976128        -1.558687        -2.505990
 H        -4.453375        -0.092136        -3.414808
