19
Iteration:  2678
 C         1.472639        -0.363914         0.194343
 C         0.090138         0.068006        -0.011416
 C        -1.043876         0.490187        -0.219044
 C        -2.464788         0.723108        -0.082773
 O        -2.956963         0.574669         1.342189
 C        -3.302704        -0.291495        -1.056082
 C        -4.729065         0.045344        -1.310137
 C        -4.206343         0.371285        -2.778866
 O        -2.893105        -0.279954        -2.415004
 H         2.109195        -0.722795        -0.694106
 H         2.032329         0.503042         0.787205
 H         1.358884        -1.114388         0.927773
 H        -2.673167         1.794180        -0.236643
 H        -3.684300         1.255498         1.337829
 H        -3.129148        -1.268361        -0.602156
 H        -5.295828        -0.881306        -1.375936
 H        -5.351846         0.765219        -0.786268
 H        -4.605942        -0.248437        -3.589507
 H        -4.033442         1.447868        -2.909221
