19
Iteration:  1110charge 0 multiplicity 1
 C         1.486482        -0.224773        -0.141757
 C         0.142521         0.135853         0.207390
 C        -1.078820         0.251644         0.270623
 C        -2.563110         0.409594         0.178178
 O        -3.433401        -0.189880         1.280291
 C        -3.050041        -0.210204        -1.278173
 C        -4.607482         0.032475        -1.457722
 C        -4.155481         0.610913        -2.781319
 O        -2.738361         0.611608        -2.436224
 H         1.570035        -1.330091         0.111412
 H         1.688861        -0.051387        -1.150530
 H         2.118777         0.533444         0.358866
 H        -2.852243         1.446856         0.288523
 H        -2.893947        -0.923748         1.677870
 H        -2.691723        -1.309170        -1.275764
 H        -5.306970        -0.822558        -1.471740
 H        -5.142554         0.745361        -0.787330
 H        -4.415116         0.037742        -3.763728
 H        -4.508770         1.629082        -2.921648
