19
Iteration:  1385
 C         1.547473        -0.148059         0.398267
 C         0.047019        -0.025656         0.093110
 C        -1.156562         0.257131        -0.082493
 C        -2.552127         0.465846        -0.055917
 O        -2.894044        -0.163201         1.152028
 C        -3.267463        -0.258895        -1.258756
 C        -4.748586         0.014238        -1.523102
 C        -4.280968         0.876316        -2.579869
 O        -2.867278         0.339105        -2.436231
 H         1.710423         0.582290         1.235196
 H         1.722050        -1.123654         0.784471
 H         2.219648        -0.104826        -0.534949
 H        -2.919996         1.643556        -0.009030
 H        -2.152659        -0.004773         1.765759
 H        -3.028620        -1.341716        -1.200452
 H        -5.221134        -0.891417        -1.884517
 H        -5.472482         0.498854        -0.906678
 H        -4.633459         0.558305        -3.528615
 H        -4.198192         1.950647        -2.547928
