19
Iteration:  1479
 C         1.563100        -0.012879        -0.074549
 C         0.102335         0.084923         0.125329
 C        -1.106857         0.295937         0.064206
 C        -2.676620         0.423083         0.179117
 O        -3.337143        -0.171305         1.312000
 C        -3.225578        -0.229978        -1.114140
 C        -4.652841         0.191472        -1.513661
 C        -3.951766         0.819909        -2.757159
 O        -2.787055         0.084546        -2.402980
 H         2.016427        -0.872595         0.481112
 H         1.651642        -0.460522        -1.121359
 H         2.109900         0.872809        -0.076493
 H        -2.900537         1.500576         0.307053
 H        -2.726295        -0.957995         1.488833
 H        -3.252032        -1.324201        -0.985482
 H        -5.400637        -0.565144        -1.805476
 H        -5.102702         0.743597        -0.639911
 H        -4.351953         0.471975        -3.753060
 H        -3.775172         1.862415        -2.810772
