19
Iteration:  2099
 C         1.523635        -0.242327        -0.146626
 C         0.140266         0.173837         0.140886
 C        -1.071929         0.320099         0.175736
 C        -2.544290         0.521261         0.168261
 O        -3.302855         0.160097         1.348525
 C        -3.209338        -0.199293        -1.052876
 C        -4.710591         0.313064        -1.509476
 C        -4.085551         0.283234        -2.899676
 O        -2.731753         0.135776        -2.356104
 H         2.075593         0.602353        -0.427760
 H         2.097649        -0.692698         0.606412
 H         1.335014        -0.860508        -1.063551
 H        -2.699714         1.582529        -0.047789
 H        -3.763838        -0.738470         1.299351
 H        -3.168166        -1.289598        -0.811737
 H        -5.440982        -0.418953        -1.169594
 H        -4.864020         1.344659        -1.140773
 H        -4.428529        -0.658102        -3.500495
 H        -4.182423         1.123355        -3.591288
