19
Iteration:  3358charge 0 multiplicity 1
 C         1.429067        -0.330750        -0.310571
 C         0.018695         0.027342        -0.135659
 C        -1.130316         0.304613         0.146802
 C        -2.496748         0.850704         0.056809
 O        -3.285424         1.030242         1.230730
 C        -3.235831        -0.180614        -0.808749
 C        -4.643110         0.282806        -1.515565
 C        -4.009371        -0.320412        -2.776942
 O        -2.718023        -0.435014        -2.116432
 H         1.993177         0.320653        -1.047576
 H         1.856667        -0.291017         0.713234
 H         1.567383        -1.287374        -0.685725
 H        -2.418534         1.809070        -0.435444
 H        -3.171262         1.969627         1.593807
 H        -3.298455        -1.032130        -0.182878
 H        -5.488669        -0.311435        -1.075364
 H        -4.924045         1.379179        -1.516345
 H        -4.418399        -1.399460        -2.938412
 H        -3.923316         0.474954        -3.584330
