19
Iteration:  2915
 C         1.306553        -0.314070        -0.105299
 C        -0.069310         0.051184        -0.185429
 C        -1.156801         0.569086        -0.017478
 C        -2.569656         0.796497        -0.003855
 O        -2.962520         0.632876         1.426644
 C        -3.279187        -0.193860        -0.863486
 C        -4.673985         0.238947        -1.563063
 C        -4.005313        -0.142344        -2.822320
 O        -2.668449        -0.210192        -2.174876
 H         1.322089        -1.407475        -0.265025
 H         1.874483         0.150927        -0.873434
 H         1.882067        -0.213173         0.933973
 H        -2.865664         1.818493        -0.335130
 H        -3.819618         0.074180         1.495363
 H        -3.276083        -1.170324        -0.312527
 H        -5.691408        -0.038233        -1.201371
 H        -4.697374         1.363626        -1.410659
 H        -4.198760        -1.156241        -3.160133
 H        -4.138554         0.519308        -3.625750
