19
Iteration:   797charge 0 multiplicity 1
 C         1.515479        -0.158808        -0.144171
 C         0.183796         0.037647         0.385974
 C        -1.028411         0.158173         0.283020
 C        -2.533488         0.338508         0.124515
 O        -3.427897        -0.439781         1.095352
 C        -3.066771        -0.084967        -1.238297
 C        -4.591791         0.134953        -1.425241
 C        -4.223135         0.574152        -2.811184
 O        -2.825738         0.840520        -2.358997
 H         1.728765        -1.042574        -0.689044
 H         1.863490         0.730180        -0.773245
 H         2.297385        -0.192980         0.598276
 H        -2.821941         1.399476         0.107751
 H        -3.095517        -0.407923         2.072192
 H        -2.724480        -1.138503        -1.675019
 H        -5.128063        -0.827048        -1.428025
 H        -4.982608         0.806382        -0.678804
 H        -4.354950        -0.285588        -3.569895
 H        -4.888628         1.316902        -3.302380
