19
Iteration:  3433
 C         1.205689        -0.498791        -0.359422
 C        -0.066425         0.224330         0.008259
 C        -1.181583         0.753601        -0.120497
 C        -2.656916         1.073362         0.079097
 O        -2.949690         0.927433         1.491462
 C        -3.344772         0.002871        -0.882244
 C        -4.573594         0.166492        -1.725907
 C        -3.836794        -0.450085        -2.832037
 O        -2.718335        -0.642034        -1.945223
 H         2.241674        -0.076602         0.024427
 H         1.416810        -1.511298        -0.013199
 H         1.172941        -0.447815        -1.549237
 H        -3.027697         2.106615        -0.114536
 H        -2.845352         0.046714         1.782090
 H        -3.550669        -0.805827         0.042185
 H        -5.566292        -0.331082        -1.490347
 H        -4.935114         1.235244        -1.937006
 H        -4.300605        -1.363243        -3.117987
 H        -3.546534         0.093814        -3.816288
