19
Iteration:  3607
 C         1.563394        -0.123833        -0.046386
 C         0.140959         0.086290        -0.082207
 C        -1.028683         0.321443         0.083521
 C        -2.424450         0.685910        -0.145654
 O        -3.227721         1.252962         0.944464
 C        -3.305422        -0.414184        -0.783986
 C        -4.686839         0.325157        -1.291935
 C        -4.176469        -0.208685        -2.698249
 O        -2.916257        -0.685140        -2.230607
 H         1.799914        -1.088433        -0.369798
 H         2.276995         0.559053        -0.331059
 H         1.691062        -0.175461         1.127683
 H        -2.534561         1.423377        -0.945266
 H        -2.540519         1.211801         1.660023
 H        -3.371088        -1.223299        -0.069133
 H        -5.639100        -0.043376        -0.870817
 H        -4.410641         1.389843        -1.092364
 H        -4.984557        -1.028929        -2.977140
 H        -4.070927         0.584794        -3.450763
