19
Iteration:  2535charge 0 multiplicity 1
 C         1.638345        -0.248407         0.268284
 C         0.145531        -0.045702         0.186738
 C        -1.058295         0.101588         0.008192
 C        -2.387514         0.585993        -0.183316
 O        -3.001607         0.735069         1.148255
 C        -3.204742        -0.205559        -1.153316
 C        -4.867783        -0.003899        -1.333413
 C        -4.325064         0.008385        -2.762938
 O        -3.027047         0.354256        -2.395924
 H         1.927666        -0.452783         1.396280
 H         2.061612        -1.248298        -0.278729
 H         2.188959         0.639195        -0.005569
 H        -2.390506         1.631301        -0.812704
 H        -2.689829        -0.064360         1.702956
 H        -3.043849        -1.336835        -1.134561
 H        -5.577217        -0.819093        -1.118081
 H        -5.293358         0.921419        -0.973552
 H        -4.310995        -0.926437        -3.285727
 H        -4.794243         0.703412        -3.361598
