19
Iteration:  4120charge 0 multiplicity 1
 C         1.529210        -0.462117        -0.205421
 C         0.167882         0.107604         0.070662
 C        -1.043156         0.410463         0.098244
 C        -2.433114         0.936591        -0.317399
 O        -3.178564         1.596702         0.715569
 C        -3.355487        -0.270085        -0.683289
 C        -4.636762         0.331988        -1.326142
 C        -3.991048        -0.235610        -2.623108
 O        -3.055733        -1.078652        -1.836887
 H         2.013307         0.369725        -0.672198
 H         2.191149        -0.735914         0.580445
 H         1.404590        -1.263701        -0.956627
 H        -2.481584         1.627637        -1.139123
 H        -3.507590         0.843349         1.326970
 H        -3.564162        -1.033237         0.151734
 H        -5.659399        -0.020396        -1.102867
 H        -4.578407         1.422331        -1.202494
 H        -4.626995        -0.874734        -3.255810
 H        -3.388063         0.315854        -3.408098
