19
Iteration:  3003charge 0 multiplicity 1
 C         1.484554        -0.347046        -0.059339
 C         0.080539         0.100280         0.181507
 C        -1.083124         0.436539        -0.033294
 C        -2.509593         0.796172        -0.030653
 O        -3.189012         0.806557         1.177030
 C        -3.179905        -0.201322        -0.963071
 C        -4.647814         0.099968        -1.309019
 C        -4.233534        -0.188172        -2.778486
 O        -2.827540        -0.142845        -2.424372
 H         1.911318         0.109338        -0.919715
 H         2.012082        -0.012327         0.787279
 H         1.561236        -1.469611         0.052740
 H        -2.567579         1.869564        -0.442749
 H        -2.543581         0.671894         1.957754
 H        -2.941067        -1.191113        -0.505878
 H        -5.242477        -0.642407        -0.710035
 H        -4.996478         1.155317        -1.125548
 H        -4.445731        -1.227696        -3.178221
 H        -4.511793         0.534534        -3.522949
