19
Iteration:   350charge 0 multiplicity 1
 C         1.348574         0.153472        -0.347002
 C        -0.058205         0.109579         0.091653
 C        -1.267529        -0.021395         0.230356
 C        -2.725989        -0.029425         0.251472
 O        -3.291353        -0.905227         1.236770
 C        -3.086191        -0.127398        -1.210094
 C        -4.480597         0.159078        -1.652807
 C        -3.869043         1.009755        -2.672550
 O        -2.617168         0.973322        -2.053260
 H         2.092699        -0.393544         0.238015
 H         1.423007        -0.200940        -1.424376
 H         1.558033         1.183211        -0.479252
 H        -2.886609         1.067567         0.508545
 H        -4.192833        -0.557957         1.332191
 H        -2.541362        -1.051218        -1.487260
 H        -5.045151        -0.738124        -2.038191
 H        -5.112842         0.688322        -0.839927
 H        -3.823744         0.555977        -3.691920
 H        -4.353065         2.058424        -2.791406
