19
Iteration:  3914charge 0 multiplicity 1
 C         1.434101        -0.522610         0.223516
 C         0.166415         0.157865         0.089362
 C        -1.006103         0.501618        -0.087987
 C        -2.412422         0.939476        -0.360683
 O        -2.934938         1.422615         0.874851
 C        -3.252384        -0.167063        -0.871484
 C        -4.756170         0.058844        -1.266055
 C        -4.426316        -0.636637        -2.536333
 O        -2.951673        -0.471338        -2.282575
 H         1.391741        -1.419307         0.869261
 H         1.695743        -0.671831        -0.824076
 H         2.266534         0.186151         0.706058
 H        -2.348831         1.858098        -1.032559
 H        -2.154490         1.941587         1.150963
 H        -2.996274        -1.036076        -0.291684
 H        -5.284680        -0.421611        -0.425584
 H        -5.048133         1.109147        -1.251231
 H        -4.710065        -1.712236        -2.658820
 H        -4.683959        -0.252578        -3.480801
