19
Iteration:  1705
 C         1.315946        -0.224631        -0.017839
 C        -0.107293         0.024668        -0.075647
 C        -1.192309         0.426339         0.086738
 C        -2.647439         0.491276         0.141689
 O        -2.982279        -0.206652         1.393940
 C        -3.271051        -0.208449        -1.091848
 C        -4.746886         0.155879        -1.600640
 C        -3.860865         0.552511        -2.914829
 O        -2.694697         0.451045        -2.226782
 H         1.802415         0.690443        -0.289941
 H         1.667345        -0.216492         0.981934
 H         1.782992        -1.056234        -0.583878
 H        -3.008577         1.548161         0.562596
 H        -2.512124        -1.005793         1.299628
 H        -3.188665        -1.269438        -0.806522
 H        -5.362599        -0.748291        -1.589406
 H        -5.174543         0.989034        -1.025029
 H        -3.934164        -0.221561        -3.684731
 H        -4.209461         1.533290        -3.331508
