19
Iteration:  1211
 C         1.397966        -0.493302         0.318595
 C         0.094673         0.150358        -0.135746
 C        -1.131054         0.390723        -0.005626
 C        -2.522972         0.530203         0.045869
 O        -3.012270        -0.212860         1.310883
 C        -3.104844        -0.038191        -1.199306
 C        -4.606474        -0.179952        -1.510763
 C        -4.252141         0.467642        -2.864868
 O        -2.937013         0.904993        -2.266282
 H         1.818027        -1.188790        -0.393243
 H         2.009296         0.384995         0.612121
 H         1.035529        -1.161058         1.171926
 H        -2.853689         1.518560         0.106067
 H        -2.541527        -1.025860         1.336083
 H        -2.496166        -0.983589        -1.416095
 H        -4.990343        -1.159061        -1.438555
 H        -5.270312         0.503368        -0.999870
 H        -4.224583        -0.387549        -3.687149
 H        -4.889477         1.283574        -3.249034
