19
Iteration:   775charge 0 multiplicity 1
 C         1.488102        -0.225667        -0.036516
 C         0.086755         0.016866         0.244117
 C        -1.123659         0.153385         0.356165
 C        -2.528277         0.406623         0.197422
 O        -3.221943        -0.424285         1.113053
 C        -2.984106        -0.035953        -1.240665
 C        -4.590057        -0.067417        -1.457124
 C        -4.241028         0.629942        -2.860690
 O        -2.904678         0.901325        -2.410875
 H         1.699573        -1.249841        -0.269145
 H         1.729511         0.269475        -1.050817
 H         2.332722         0.047889         0.590116
 H        -2.866435         1.411159         0.428415
 H        -3.137123        -0.007363         1.937656
 H        -2.648441        -1.120302        -1.513485
 H        -5.187988        -1.004627        -1.426308
 H        -5.077707         0.658655        -0.807976
 H        -4.220817         0.110243        -3.907215
 H        -4.982986         1.484220        -3.111682
