19
Iteration:  3069
 C         1.672842        -0.189512         0.248124
 C         0.221133         0.032909         0.080946
 C        -1.003243         0.167767        -0.053259
 C        -2.415608         0.784391        -0.103900
 O        -3.057159         1.088365         1.130345
 C        -3.229678        -0.295801        -1.015199
 C        -4.789701        -0.169525        -1.229524
 C        -4.421660         0.003920        -2.778476
 O        -2.966237        -0.139652        -2.463266
 H         2.149414         0.595035         0.666877
 H         1.706854        -0.905263         0.978167
 H         2.241232        -0.680242        -0.554508
 H        -2.409649         1.633272        -0.875226
 H        -3.603354         0.313425         1.342622
 H        -2.947455        -1.281359        -0.864664
 H        -5.564492        -0.936671        -1.033975
 H        -5.109226         0.843714        -0.945455
 H        -4.846051        -0.913078        -3.357615
 H        -4.737949         0.921562        -3.286079
