19
Iteration:  4829charge 0 multiplicity 1
 C         1.307203        -0.677676        -0.064084
 C         0.004765         0.051220         0.029490
 C        -1.004059         0.658922        -0.198092
 C        -2.398335         1.089348        -0.421442
 O        -2.953218         1.757823         0.739161
 C        -3.255830        -0.185116        -0.709244
 C        -4.590126         0.161686        -1.218617
 C        -4.198458        -0.691699        -2.470927
 O        -2.914003        -0.918441        -1.886161
 H         1.274418        -1.248397        -0.948008
 H         2.050547         0.039489         0.294006
 H         1.378379        -1.182451         0.858918
 H        -2.486630         1.747177        -1.328041
 H        -3.178200         2.723831         0.537372
 H        -3.165972        -0.848632         0.176514
 H        -5.431330        -0.381316        -0.748730
 H        -4.985208         1.231607        -1.387485
 H        -4.869459        -1.569550        -2.583226
 H        -4.173309        -0.050254        -3.349766
