19
Iteration:  3756charge 0 multiplicity 1
 C         1.418769        -0.370124         0.599897
 C         0.103120         0.055427         0.092885
 C        -0.897291         0.558753        -0.384517
 C        -2.322816         0.908299        -0.497268
 O        -2.713979         1.270269         0.914044
 C        -3.192846        -0.307400        -0.989047
 C        -4.617664        -0.119539        -1.010133
 C        -4.610188        -0.272257        -2.533171
 O        -3.170612        -0.502128        -2.502996
 H         2.148201         0.505426         0.533934
 H         1.337725        -0.553447         1.735774
 H         1.985278        -1.067027         0.001014
 H        -2.581370         1.841009        -1.031606
 H        -3.493556         1.919181         0.894223
 H        -2.666845        -1.098369        -0.539877
 H        -5.087287        -0.914618        -0.376213
 H        -5.078480         0.773900        -0.572595
 H        -5.193958        -1.028908        -2.963045
 H        -4.870479         0.661400        -3.095729
