19
Iteration:  4819
 C         1.291349        -0.699445         0.041889
 C         0.060141         0.095783        -0.096204
 C        -0.997168         0.660667        -0.258587
 C        -2.385215         1.118162        -0.379350
 O        -3.032089         1.701154         0.751304
 C        -3.252959        -0.113544        -0.706182
 C        -4.698844         0.163079        -1.216458
 C        -4.165241        -0.660988        -2.446367
 O        -2.869593        -0.947552        -1.878781
 H         1.491248        -1.389056        -0.790247
 H         2.218177        -0.161986        -0.225688
 H         1.299067        -1.407460         0.838553
 H        -2.524548         1.806337        -1.258472
 H        -2.977037         2.677311         0.506677
 H        -3.313382        -0.703181         0.272089
 H        -5.528211        -0.316261        -0.663575
 H        -4.804528         1.303078        -1.338326
 H        -4.683738        -1.620925        -2.577994
 H        -4.060714        -0.235903        -3.451935
