19
Iteration:  2704
 C         1.463259        -0.287065         0.162294
 C         0.027552        -0.009801        -0.184458
 C        -1.123565         0.365648        -0.145878
 C        -2.520736         0.766664        -0.182448
 O        -2.912446         0.627913         1.281732
 C        -3.339577        -0.319811        -0.919226
 C        -4.730669         0.039454        -1.393454
 C        -4.075813         0.355811        -2.689204
 O        -2.834129        -0.222140        -2.265236
 H         2.142562        -0.051976        -0.639293
 H         1.737971         0.193887         1.112128
 H         1.523862        -1.430432         0.492319
 H        -2.741884         1.886686        -0.409253
 H        -3.916715         0.669738         1.201660
 H        -3.086300        -1.258060        -0.354203
 H        -5.437042        -0.837466        -1.474766
 H        -5.363706         0.929515        -1.035168
 H        -4.381242        -0.155187        -3.566392
 H        -4.016650         1.389328        -2.832343
