19
Iteration:  4465charge 0 multiplicity 1
 C         1.419269        -0.294427         0.579890
 C         0.251967         0.249948        -0.056712
 C        -0.916390         0.470925        -0.416871
 C        -2.301865         0.795948        -0.577233
 O        -2.861058         1.416095         0.519167
 C        -3.306850        -0.333606        -0.761398
 C        -4.687599         0.169494        -0.990488
 C        -4.470926        -0.288143        -2.472888
 O        -3.172803        -0.885723        -2.094296
 H         2.156177        -0.516786        -0.274631
 H         1.897801         0.408102         1.297779
 H         1.266134        -1.337813         0.880911
 H        -2.387376         1.427661        -1.495724
 H        -1.980860         1.524283         1.037195
 H        -3.188066        -0.993038         0.055584
 H        -5.609570        -0.151351        -0.425315
 H        -4.774304         1.289008        -1.004141
 H        -5.308900        -0.976781        -2.672859
 H        -4.471751         0.362284        -3.338030
