19
Iteration:  3372
 C         1.384387        -0.359888        -0.286807
 C        -0.012691         0.032848        -0.258825
 C        -1.143424         0.363496         0.000478
 C        -2.529360         0.822240         0.076043
 O        -3.315143         1.086651         1.366014
 C        -3.346749        -0.170129        -0.807153
 C        -4.607425         0.247742        -1.497333
 C        -3.918019        -0.344410        -2.739276
 O        -2.619743        -0.425417        -2.100721
 H         1.896768         0.487346        -0.761136
 H         1.845656        -0.580977         0.760017
 H         1.468025        -1.259569        -0.885435
 H        -2.563907         1.814359        -0.467894
 H        -2.819257         1.756871         1.832349
 H        -3.444319        -1.157606        -0.263375
 H        -5.616276        -0.060272        -1.297179
 H        -4.511709         1.319394        -1.621521
 H        -4.362625        -1.383477        -3.125693
 H        -3.946984         0.146205        -3.712166
