19
Iteration:   310charge 0 multiplicity 1
 C         1.335973         0.078983        -0.364512
 C         0.022680        -0.058179         0.208874
 C        -1.136656         0.114025         0.512831
 C        -2.629402         0.154990         0.297252
 O        -3.301333        -0.906653         1.009432
 C        -3.014151        -0.031619        -1.182524
 C        -4.564034         0.113025        -1.596647
 C        -4.021749         0.990449        -2.708415
 O        -2.685608         0.965207        -2.123469
 H         2.265582         0.333123         0.391027
 H         1.637731        -0.768001        -0.967545
 H         1.267849         0.898603        -1.112795
 H        -3.177687         1.081531         0.639427
 H        -3.804046        -1.531180         0.409016
 H        -2.801345        -1.030515        -1.595249
 H        -4.901837        -0.766668        -2.065947
 H        -5.191009         0.633028        -0.913874
 H        -4.177496         0.614806        -3.714306
 H        -4.323453         2.011404        -2.690290
