19
Iteration:  1929
 C         1.371207        -0.373577         0.512137
 C         0.076301         0.052627         0.100598
 C        -0.994211         0.600780        -0.138484
 C        -2.413373         0.615461        -0.103986
 O        -3.040555         0.045573         1.075760
 C        -3.018154        -0.288141        -1.285913
 C        -4.640377        -0.041300        -1.270124
 C        -4.422674         0.610487        -2.593157
 O        -2.999242         0.246928        -2.607824
 H         1.477585        -1.521928         0.454744
 H         2.165327         0.031505        -0.238950
 H         1.693818        -0.146574         1.508305
 H        -2.838512         1.670764        -0.218888
 H        -2.375301        -0.241391         1.715315
 H        -2.670870        -1.298141        -1.231176
 H        -5.140824        -1.015120        -1.244211
 H        -5.017489         0.451406        -0.331588
 H        -4.989147         0.288288        -3.454373
 H        -4.266825         1.752310        -2.590198
