19
Iteration:   787
 C         1.519514        -0.189175        -0.122124
 C         0.152340         0.020446         0.363712
 C        -1.055410         0.184027         0.314239
 C        -2.514538         0.326759         0.182233
 O        -3.350752        -0.444221         1.120634
 C        -3.086777        -0.036798        -1.278156
 C        -4.553935         0.007145        -1.465131
 C        -4.267387         0.592309        -2.840810
 O        -2.876726         0.875244        -2.401625
 H         1.556285        -1.224647        -0.481166
 H         1.726512         0.596522        -0.951786
 H         2.150940        -0.034553         0.671258
 H        -2.642590         1.400003         0.301921
 H        -3.113654        -0.117350         2.027473
 H        -2.484205        -0.990778        -1.508438
 H        -5.153445        -0.876880        -1.230650
 H        -4.913034         0.848749        -0.875917
 H        -4.288317        -0.209311        -3.662100
 H        -4.622933         1.617236        -3.107335
