19
Iteration:  2058
 C         1.506016        -0.116694        -0.023120
 C         0.043800        -0.124448         0.046918
 C        -1.120836         0.045614         0.090371
 C        -2.526018         0.502611         0.088654
 O        -3.261226         0.404225         1.347886
 C        -3.148918        -0.202933        -1.073159
 C        -4.638968         0.090931        -1.377535
 C        -4.155535         0.334725        -2.866450
 O        -2.759774         0.330418        -2.400855
 H         1.813382         0.612446        -0.786450
 H         1.927012         0.194053         1.001710
 H         2.048634        -1.050123        -0.192608
 H        -2.550325         1.674639        -0.019440
 H        -3.431483        -0.560757         1.401186
 H        -2.921801        -1.303240        -1.178013
 H        -5.350888        -0.711371        -1.366083
 H        -5.066449         1.027226        -1.027636
 H        -4.236583        -0.480954        -3.701367
 H        -4.501929         1.255034        -3.370613
