19
Iteration:  2037charge 0 multiplicity 1
 C         1.528759        -0.074635         0.095064
 C         0.096260        -0.265919        -0.002409
 C        -1.120420         0.051594         0.057385
 C        -2.516728         0.517805         0.033395
 O        -3.291562         0.421841         1.257233
 C        -3.160319        -0.210269        -1.118653
 C        -4.691711        -0.034406        -1.389540
 C        -4.183472         0.421716        -2.787683
 O        -2.768268         0.397782        -2.397963
 H         1.811370         0.206223        -0.953018
 H         1.980427         0.576639         0.946174
 H         2.037639        -1.032269         0.265033
 H        -2.557099         1.638097        -0.157759
 H        -2.696369        -0.162751         1.845075
 H        -3.000525        -1.298627        -1.014588
 H        -5.279996        -0.924540        -1.188035
 H        -5.107821         0.810447        -0.828340
 H        -4.288999        -0.375842        -3.491927
 H        -4.467219         1.347295        -3.291280
