19
Iteration:  2221
 C         1.436443        -0.142206        -0.245986
 C         0.001619         0.064743        -0.069584
 C        -1.155796         0.267673         0.061658
 C        -2.644790         0.534631         0.194763
 O        -3.085456         0.113281         1.511131
 C        -3.431155        -0.195906        -0.937221
 C        -4.671298         0.434716        -1.640786
 C        -3.857280         0.336654        -2.950244
 O        -2.681924        -0.054400        -2.186550
 H         1.729650        -0.784046         0.675936
 H         1.679762        -0.742762        -1.233769
 H         2.052800         0.884605        -0.331894
 H        -2.659350         1.589604         0.093736
 H        -3.918728         0.535627         1.692543
 H        -3.479575        -1.231468        -0.530039
 H        -5.466895        -0.354357        -1.636684
 H        -5.007118         1.424497        -1.267073
 H        -4.359878        -0.337812        -3.602264
 H        -3.508936         1.218333        -3.455549
