19
Iteration:  4883
 C         1.550850        -0.514780         0.027726
 C         0.133900        -0.090683         0.042372
 C        -1.069927         0.300486         0.068922
 C        -2.319133         0.988271        -0.380933
 O        -2.879160         1.995201         0.471761
 C        -3.367413        -0.156426        -0.644241
 C        -4.748479         0.046950        -1.153873
 C        -4.336411        -0.649983        -2.505856
 O        -2.967557        -0.755722        -1.952904
 H         1.784340        -0.197980        -0.999445
 H         2.082066         0.213271         0.751289
 H         1.553119        -1.622778         0.041743
 H        -1.957504         1.569651        -1.289006
 H        -3.858633         1.755403         0.477803
 H        -3.269039        -0.908894         0.105053
 H        -5.657044        -0.420002        -0.746882
 H        -5.073481         1.149376        -1.324984
 H        -4.822390        -1.647837        -2.800600
 H        -4.434238        -0.025895        -3.431298
