19
Iteration:  2932charge 0 multiplicity 1
 C         1.329940        -0.427636        -0.089534
 C        -0.020331         0.206391        -0.118229
 C        -1.203210         0.547225        -0.168029
 C        -2.577175         0.849963         0.096828
 O        -3.027910         0.587383         1.392903
 C        -3.283988        -0.159661        -0.913529
 C        -4.570576         0.286733        -1.389451
 C        -4.059943        -0.219366        -2.819906
 O        -2.648728        -0.221601        -2.234493
 H         1.439975        -1.373308        -0.640882
 H         2.126709         0.277334        -0.489313
 H         1.529029        -0.443744         0.926382
 H        -2.881968         1.837170        -0.380812
 H        -4.023699         0.439575         1.337481
 H        -3.246390        -1.191423        -0.557162
 H        -5.437017        -0.309534        -1.114542
 H        -4.777114         1.373648        -1.362975
 H        -4.407610        -1.227248        -3.152076
 H        -3.949581         0.529903        -3.734506
