19
Iteration:  4902charge 0 multiplicity 1
 C         1.594700        -0.466176         0.090195
 C         0.161392        -0.027331        -0.047586
 C        -1.018761         0.306869         0.057941
 C        -2.304616         0.847281        -0.380982
 O        -2.914369         1.971464         0.424223
 C        -3.292650        -0.190234        -0.732405
 C        -4.877527         0.141481        -1.184897
 C        -4.346167        -0.597908        -2.415665
 O        -2.981568        -0.756237        -1.957751
 H         2.272088        -0.088969        -0.723361
 H         1.838736        -0.235235         1.171756
 H         1.617598        -1.684344         0.142320
 H        -2.260591         1.256641        -1.403186
 H        -3.667729         1.541714         0.856264
 H        -3.391442        -0.836124         0.166503
 H        -5.630468        -0.328606        -0.509478
 H        -5.204744         1.160138        -1.336858
 H        -4.867831        -1.577082        -2.568601
 H        -4.446769        -0.033089        -3.375612
