19
Iteration:  2644charge 0 multiplicity 1
 C         1.429411        -0.366038         0.212210
 C         0.146303         0.211333         0.184070
 C        -0.990968         0.455270        -0.032556
 C        -2.376065         0.669469        -0.155564
 O        -3.039280         0.507855         1.126793
 C        -3.208195        -0.320903        -1.111982
 C        -4.711447         0.071960        -1.250260
 C        -4.317777         0.300518        -2.725516
 O        -2.959638        -0.176974        -2.474084
 H         1.563977        -1.359463        -0.344721
 H         2.302535         0.359984        -0.091719
 H         1.540726        -0.709741         1.190580
 H        -2.706869         1.681535        -0.419610
 H        -2.741329         1.340758         1.480832
 H        -3.239046        -1.367796        -0.826856
 H        -5.419538        -0.683231        -0.975949
 H        -4.882710         0.940930        -0.670410
 H        -4.841966        -0.299523        -3.511215
 H        -4.336386         1.302193        -3.195335
