19
Iteration:  3416charge 0 multiplicity 1
 C         1.168838        -0.414622        -0.368342
 C        -0.100528         0.152153        -0.041981
 C        -1.196181         0.643052        -0.071169
 C        -2.585924         0.990114         0.020914
 O        -2.984690         0.956358         1.421414
 C        -3.432246        -0.073652        -0.750641
 C        -4.670086         0.257870        -1.701146
 C        -3.816651        -0.466634        -2.807272
 O        -2.593121        -0.547166        -1.980389
 H         1.985552         0.227873        -0.133146
 H         1.416372        -1.326188         0.278785
 H         1.196170        -0.781178        -1.352282
 H        -2.707867         2.008344        -0.355997
 H        -2.450709         0.249380         1.769476
 H        -3.629211        -0.854431        -0.063995
 H        -5.501794        -0.233939        -1.228549
 H        -4.886111         1.300770        -1.806447
 H        -4.021197        -1.501677        -3.246666
 H        -3.648415         0.079157        -3.728857
