19
Iteration:   436
 C         1.333186         0.212859        -0.146223
 C        -0.014805         0.060951         0.222987
 C        -1.223574         0.196269         0.301917
 C        -2.645283         0.063114         0.245110
 O        -3.134624        -0.869779         1.237210
 C        -3.180883        -0.258141        -1.266005
 C        -4.614188         0.306496        -1.596751
 C        -3.959973         1.138794        -2.721922
 O        -2.640714         0.622161        -2.341717
 H         1.668014        -0.599398        -0.670073
 H         1.393636         1.074127        -0.890053
 H         2.071647         0.164969         0.694219
 H        -3.043254         1.019219         0.449533
 H        -3.222275        -1.654086         0.658111
 H        -2.937738        -1.279760        -1.590297
 H        -5.454721        -0.329003        -1.984670
 H        -5.060651         0.640212        -0.568434
 H        -4.349265         0.813820        -3.701730
 H        -4.076796         2.212114        -2.646170
