19
Iteration:  1351
 C         1.600904        -0.159196         0.413692
 C         0.135434        -0.023330         0.250076
 C        -0.995592         0.103783        -0.156435
 C        -2.490233         0.312080        -0.072390
 O        -3.122421        -0.069185         1.202905
 C        -3.173334        -0.305634        -1.343397
 C        -4.667874        -0.017862        -1.441287
 C        -4.416474         0.858861        -2.642775
 O        -2.956892         0.530787        -2.496942
 H         2.191080         0.812543         0.619999
 H         1.827362        -0.793745         1.188240
 H         2.169678        -0.462156        -0.513710
 H        -2.536727         1.496178        -0.078281
 H        -2.697933         0.374332         1.909415
 H        -2.790302        -1.306968        -1.607902
 H        -5.254030        -0.902407        -1.639053
 H        -5.091772         0.562252        -0.622445
 H        -4.862681         0.435505        -3.546389
 H        -4.696143         1.928767        -2.574082
