19
Iteration:  1621
 C         1.293089        -0.104553        -0.375841
 C        -0.026998         0.196110         0.079914
 C        -1.216611         0.390450         0.260944
 C        -2.678713         0.418177         0.264726
 O        -3.347432        -0.333733         1.307874
 C        -3.150549        -0.250308        -1.059757
 C        -4.559168         0.389240        -1.522737
 C        -3.891445         0.530844        -2.878303
 O        -2.541032         0.242269        -2.276859
 H         1.163497        -0.350246        -1.488353
 H         2.171242         0.683763        -0.077851
 H         1.683482        -0.955373         0.131244
 H        -3.051688         1.393806         0.284691
 H        -2.781892        -0.321584         2.176790
 H        -3.151061        -1.300698        -0.748477
 H        -5.384612        -0.354266        -1.458195
 H        -4.936650         1.283130        -0.987543
 H        -4.078464        -0.225227        -3.655067
 H        -3.744776         1.522167        -3.358684
