19
Iteration:  3452
 C         1.136569        -0.465806        -0.338769
 C        -0.040727         0.271666        -0.132863
 C        -1.112805         0.856714        -0.045931
 C        -2.522230         1.016098         0.084439
 O        -2.983731         0.910811         1.456207
 C        -3.409009        -0.094318        -0.787304
 C        -4.634211         0.288642        -1.692319
 C        -3.817365        -0.496859        -2.857911
 O        -2.676416        -0.709315        -1.946036
 H         1.910171        -0.228362         0.406734
 H         0.734631        -1.458297        -0.136965
 H         1.611887        -0.273952        -1.428141
 H        -2.882109         2.029901        -0.326817
 H        -2.968729        -0.033455         1.562644
 H        -3.683153        -0.996222        -0.209789
 H        -5.604071        -0.173822        -1.456279
 H        -4.949865         1.303389        -1.966258
 H        -4.344335        -1.382583        -3.251265
 H        -3.541134         0.248224        -3.551149
