19
Iteration:  2391charge 0 multiplicity 1
 C         1.431292        -0.362647         0.173279
 C         0.065401         0.097576        -0.038513
 C        -1.094641         0.507048        -0.083021
 C        -2.520384         0.661310        -0.105168
 O        -2.911192         0.457587         1.295943
 C        -3.215049        -0.297175        -1.007863
 C        -4.754173        -0.112838        -1.417290
 C        -4.190570         0.409003        -2.730949
 O        -2.841528         0.072755        -2.367433
 H         2.188070        -0.414553        -0.644025
 H         1.672175        -0.061301         1.298403
 H         1.296363        -1.457859         0.227398
 H        -2.605859         1.690092        -0.377958
 H        -3.883144         0.258048         1.429553
 H        -2.972755        -1.342870        -0.743842
 H        -5.261676        -1.055406        -1.530132
 H        -5.333890         0.560759        -0.784362
 H        -4.480744        -0.143752        -3.662044
 H        -4.315429         1.428335        -3.023856
