19
Iteration:  1577
 C         1.396133         0.098622        -0.390283
 C        -0.005747        -0.040274        -0.028679
 C        -1.153752         0.025364         0.394200
 C        -2.569331         0.348471         0.261670
 O        -3.406803        -0.168529         1.261558
 C        -3.265423        -0.215437        -0.981507
 C        -4.619815         0.311527        -1.578067
 C        -3.825298         0.599549        -2.864081
 O        -2.576503         0.276119        -2.199230
 H         1.560634        -0.589506        -1.264988
 H         1.566368         1.232654        -0.649922
 H         2.178029         0.002455         0.308370
 H        -2.532121         1.463749         0.169095
 H        -3.644623         0.532630         1.976898
 H        -3.111619        -1.284289        -1.068525
 H        -5.385128        -0.470541        -1.772026
 H        -5.173028         1.163799        -1.116324
 H        -4.240426        -0.117388        -3.546128
 H        -4.053767         1.550795        -3.242896
