19
Iteration:  4872
 C         1.455702        -0.501627        -0.046110
 C         0.027903        -0.101333         0.123858
 C        -1.071178         0.403159         0.053623
 C        -2.322359         0.944764        -0.402474
 O        -2.845134         2.010979         0.557536
 C        -3.261813        -0.188134        -0.687077
 C        -4.751558         0.050807        -1.222323
 C        -4.344558        -0.624446        -2.506090
 O        -2.940178        -0.798544        -1.954610
 H         1.751068        -0.383071        -1.088562
 H         2.281168        -0.009373         0.599476
 H         1.773945        -1.510323         0.273696
 H        -2.302975         1.327820        -1.453054
 H        -3.860349         1.973594         0.475605
 H        -3.286054        -0.770944         0.202622
 H        -5.427500        -0.522782        -0.551971
 H        -5.069513         1.159005        -1.314457
 H        -4.819621        -1.650560        -2.572859
 H        -4.342017        -0.027076        -3.444570
