19
Iteration:  4866charge 0 multiplicity 1
 C         1.384401        -0.500105        -0.075523
 C         0.036063        -0.118955         0.176003
 C        -1.056144         0.476802         0.030742
 C        -2.363209         0.982659        -0.412733
 O        -2.816587         1.975435         0.577096
 C        -3.285769        -0.218001        -0.700304
 C        -4.754468         0.089810        -1.226135
 C        -4.303730        -0.628792        -2.457558
 O        -2.933622        -0.841262        -1.980578
 H         1.874462        -0.474551        -1.084187
 H         2.086459         0.149782         0.402724
 H         1.585361        -1.533511         0.291033
 H        -2.122825         1.488375        -1.376116
 H        -3.783712         2.154150         0.493059
 H        -3.249647        -1.070825         0.091987
 H        -5.321505        -0.490600        -0.519140
 H        -5.066999         1.097291        -1.302252
 H        -4.741566        -1.589848        -2.621825
 H        -4.225432        -0.096005        -3.398883
