19
Iteration:  2441charge 0 multiplicity 1
 C         1.387025        -0.538489         0.236611
 C         0.092631         0.207812         0.153299
 C        -1.001451         0.665329        -0.044513
 C        -2.454046         0.719590        -0.092542
 O        -2.994337         0.335704         1.162069
 C        -3.095066        -0.260193        -1.140111
 C        -4.621933        -0.004516        -1.221647
 C        -4.368283         0.283069        -2.689098
 O        -2.917151         0.030355        -2.562099
 H         2.118920         0.266518         0.194019
 H         1.582396        -0.976307         1.144196
 H         1.635915        -1.200532        -0.652815
 H        -2.683067         1.839379        -0.342796
 H        -3.844022         0.720524         1.175616
 H        -2.897193        -1.307551        -0.844303
 H        -5.123350        -0.959336        -0.914377
 H        -5.114172         0.801778        -0.626688
 H        -4.753990        -0.462972        -3.473144
 H        -4.683920         1.318106        -3.159307
