19
Iteration:  4452charge 0 multiplicity 1
 C         1.498721        -0.300779         0.511974
 C         0.197393         0.172311         0.021122
 C        -0.934775         0.439984        -0.424697
 C        -2.323807         0.769277        -0.676379
 O        -2.948270         1.455606         0.543797
 C        -3.252397        -0.431971        -0.766236
 C        -4.652569         0.298607        -0.967652
 C        -4.486245        -0.329462        -2.425405
 O        -3.161289        -0.824998        -2.125237
 H         2.191878        -0.551177        -0.243232
 H         2.066642         0.416938         1.176485
 H         1.235214        -1.113476         1.275632
 H        -2.450302         1.426944        -1.538700
 H        -2.407761         2.020067         1.046192
 H        -3.111151        -1.222636        -0.093187
 H        -5.437291        -0.274219        -0.464843
 H        -4.558107         1.349860        -0.659925
 H        -5.030484        -1.194867        -2.736866
 H        -4.397418         0.400363        -3.224365
