19
Iteration:   397
 C         1.361946         0.230214        -0.238961
 C        -0.076567         0.093389        -0.107530
 C        -1.236340         0.036257         0.240606
 C        -2.679258         0.140487         0.295859
 O        -3.320163        -0.843052         1.084748
 C        -3.193955        -0.229902        -1.152996
 C        -4.629702         0.171301        -1.623944
 C        -3.844484         1.060455        -2.668839
 O        -2.551794         0.767594        -2.030439
 H         1.757078        -0.881089        -0.144994
 H         1.704103         0.598348        -1.188947
 H         1.743501         0.893063         0.505837
 H        -2.980963         1.189621         0.692774
 H        -2.666712        -1.416123         1.633512
 H        -2.892674        -1.295437        -1.286855
 H        -5.144838        -0.637375        -2.121983
 H        -5.262004         0.631885        -0.930685
 H        -3.888968         0.669636        -3.696889
 H        -3.931588         2.176291        -2.718008
