19
Iteration:  1824
 C         1.545503        -0.113545         0.401623
 C         0.124117        -0.122057         0.202546
 C        -1.044548         0.067566         0.112244
 C        -2.433206         0.454465        -0.119412
 O        -3.158004         0.111442         1.027503
 C        -3.116278        -0.221394        -1.313021
 C        -4.643672        -0.013778        -1.321095
 C        -4.435814         0.636911        -2.619608
 O        -2.954500         0.458654        -2.559380
 H         2.041821        -0.130794         1.383888
 H         2.031758        -0.941875        -0.109117
 H         1.948764         0.766122        -0.317801
 H        -2.500361         1.481598        -0.301814
 H        -2.422399         0.040282         1.719560
 H        -2.667103        -1.222344        -1.412968
 H        -5.245423        -0.927851        -1.408180
 H        -4.907881         0.549057        -0.414228
 H        -4.712637         0.134355        -3.569988
 H        -4.820149         1.633231        -2.659600
