19
Iteration:  2521
 C         1.570519        -0.271130         0.321633
 C         0.221370        -0.019519         0.085592
 C        -0.978405         0.156318         0.091673
 C        -2.373932         0.599235        -0.126963
 O        -3.040517         0.670475         1.129257
 C        -3.277035        -0.252577        -1.069389
 C        -4.791530        -0.034815        -1.345386
 C        -4.417827         0.018071        -2.861760
 O        -3.020394         0.382372        -2.439425
 H         1.845697        -0.241817         1.399517
 H         1.758522        -1.316120        -0.119555
 H         2.184449         0.339034        -0.372387
 H        -2.290124         1.689854        -0.457894
 H        -2.358631         0.418759         1.712891
 H        -2.956471        -1.335924        -1.039045
 H        -5.395001        -0.799123        -0.882074
 H        -5.103864         0.956242        -1.059671
 H        -4.472951        -0.983929        -3.303751
 H        -4.772494         0.861642        -3.533778
