19
Iteration:  4859charge 0 multiplicity 1
 C         1.360394        -0.518975        -0.086919
 C        -0.013820        -0.089444         0.180155
 C        -1.011018         0.529064         0.010296
 C        -2.374057         1.025933        -0.396324
 O        -2.790353         1.923708         0.592429
 C        -3.315269        -0.240865        -0.721490
 C        -4.725176         0.111135        -1.178835
 C        -4.241311        -0.656764        -2.443288
 O        -2.928370        -0.878132        -1.998551
 H         1.564300        -0.558073        -1.199265
 H         1.917022         0.337945         0.446057
 H         1.453321        -1.581155         0.382575
 H        -2.112282         1.632470        -1.299226
 H        -3.649878         2.244768         0.400891
 H        -3.214370        -1.024585        -0.015300
 H        -5.565716        -0.412743        -0.622010
 H        -5.060955         1.151943        -1.292865
 H        -4.809815        -1.614209        -2.726499
 H        -4.256094        -0.049355        -3.402858
