19
Iteration:  1787charge 0 multiplicity 1
 C         1.705244        -0.138927         0.177629
 C         0.211740        -0.044879         0.297439
 C        -1.035083         0.124515         0.225435
 C        -2.423769         0.357267        -0.011599
 O        -3.389537        -0.009066         0.991027
 C        -3.086187        -0.193118        -1.262159
 C        -4.640716         0.052433        -1.336598
 C        -4.394958         0.635047        -2.684065
 O        -2.913458         0.465937        -2.548251
 H         2.256983         0.555186         0.818539
 H         1.962892        -1.220164         0.143300
 H         1.794932         0.260030        -0.773728
 H        -2.368397         1.503560         0.023192
 H        -3.264963         0.402126         1.852391
 H        -2.896447        -1.312052        -1.263318
 H        -5.336637        -0.759019        -1.133609
 H        -5.007702         0.862487        -0.670179
 H        -4.757996        -0.054933        -3.525755
 H        -4.666034         1.700552        -2.907107
