19
Iteration:  1022
 C         1.489268         0.194449        -0.096554
 C         0.067697         0.036539         0.055673
 C        -1.143465        -0.051646         0.177536
 C        -2.665450         0.188264         0.117137
 O        -3.170936        -0.099967         1.388592
 C        -3.393787        -0.403289        -1.173547
 C        -4.682334         0.257592        -1.613988
 C        -3.921678         0.967803        -2.700569
 O        -2.688001         0.196445        -2.356123
 H         2.025841         0.540925         0.816762
 H         1.845543        -0.709817        -0.455376
 H         1.829165         0.962535        -0.836477
 H        -2.917387         1.285735         0.033069
 H        -2.921074        -0.936392         1.796939
 H        -3.485626        -1.551699        -1.155362
 H        -5.422687        -0.454046        -2.087943
 H        -5.362581         0.763692        -0.879943
 H        -4.284363         1.004164        -3.779258
 H        -3.655827         2.018186        -2.618106
