19
Iteration:  4496charge 0 multiplicity 1
 C         1.458263        -0.289414         0.579664
 C         0.258919         0.186170        -0.062266
 C        -0.899451         0.465725        -0.453647
 C        -2.327509         0.984105        -0.526289
 O        -2.599175         1.643986         0.782805
 C        -3.369487        -0.274517        -0.843151
 C        -4.818405         0.055406        -1.105430
 C        -4.501430        -0.347699        -2.635451
 O        -3.309145        -1.071162        -2.099977
 H         2.287402         0.071775         0.032259
 H         1.768615         0.106523         1.577810
 H         1.377104        -1.445571         0.575468
 H        -2.412899         1.704878        -1.333547
 H        -2.186225         1.110298         1.452631
 H        -3.135777        -0.975772        -0.071852
 H        -5.478020        -0.687438        -0.639091
 H        -4.934492         1.143769        -1.016814
 H        -5.237215        -1.063550        -2.944464
 H        -4.217157         0.281967        -3.485267
