19
Iteration:   999charge 0 multiplicity 1
 C         1.455546         0.143579        -0.090005
 C         0.054451         0.170893         0.139556
 C        -1.156976         0.085519        -0.002457
 C        -2.623271         0.270483         0.040753
 O        -3.243576        -0.249278         1.265703
 C        -3.344543        -0.349939        -1.111111
 C        -4.697670         0.328325        -1.531156
 C        -3.824222         0.950643        -2.595477
 O        -2.754242         0.024541        -2.355193
 H         1.990952         0.827555         0.651005
 H         1.785713        -0.855050        -0.030508
 H         1.794909         0.563313        -1.023478
 H        -2.783925         1.336851         0.235523
 H        -2.737348        -1.002714         1.610979
 H        -3.332786        -1.490386        -0.906393
 H        -5.569633        -0.234850        -1.967925
 H        -5.167804         0.948709        -0.717582
 H        -4.014057         1.087309        -3.686989
 H        -3.457789         1.958198        -2.400305
