19
Iteration:   499charge 0 multiplicity 1
 C         1.530651         0.168930         0.254060
 C         0.091794         0.205251        -0.037220
 C        -1.135960         0.166901         0.014216
 C        -2.620409         0.087678         0.158619
 O        -3.266072        -0.836220         0.984646
 C        -3.271500        -0.191147        -1.233057
 C        -4.669143         0.276023        -1.390587
 C        -4.073407         1.096459        -2.564411
 O        -2.719540         0.503895        -2.406520
 H         2.125326         0.055947        -0.727885
 H         1.915972         1.117621         0.810812
 H         1.745940        -0.888112         0.800503
 H        -2.946900         1.220751         0.337020
 H        -2.517164        -1.372939         1.269418
 H        -3.159381        -1.297993        -1.358722
 H        -5.398121        -0.508969        -1.596053
 H        -4.989648         0.959760        -0.590686
 H        -4.342980         0.847803        -3.623365
 H        -3.984029         2.203408        -2.469396
