19
Iteration:  1831
 C         1.515885        -0.113459         0.397569
 C         0.174799        -0.099584         0.183193
 C        -1.042043         0.076510         0.077762
 C        -2.442259         0.450911        -0.110884
 O        -3.098892         0.135157         1.072027
 C        -3.139148        -0.246319        -1.309898
 C        -4.648799        -0.072912        -1.313946
 C        -4.429467         0.659129        -2.688424
 O        -2.951244         0.478783        -2.544026
 H         1.711490        -0.266703         1.496011
 H         2.019863        -0.979148        -0.068199
 H         2.071534         0.702117         0.082465
 H        -2.426410         1.618009        -0.480439
 H        -2.407739        -0.101829         1.688104
 H        -2.841658        -1.334837        -1.427368
 H        -5.253175        -0.975776        -1.359664
 H        -5.251950         0.551226        -0.602135
 H        -4.991375         0.155103        -3.540803
 H        -4.789177         1.721541        -2.542852
