19
Iteration:   851
 C         1.494938         0.045278         0.016086
 C         0.046467        -0.013863        -0.131083
 C        -1.158913         0.063757         0.150734
 C        -2.613002         0.268644         0.237208
 O        -3.306737        -0.383989         1.325169
 C        -3.181706        -0.092741        -1.160883
 C        -4.654540         0.251977        -1.462302
 C        -4.046850         0.699506        -2.840007
 O        -2.685868         0.550795        -2.419795
 H         2.036169        -0.001195        -0.851489
 H         1.939332         1.034886         0.404229
 H         1.800743        -0.783987         0.711012
 H        -2.930329         1.343580         0.404011
 H        -2.709453        -1.106159         1.781420
 H        -2.969430        -1.162837        -1.443131
 H        -5.423068        -0.528621        -1.400716
 H        -4.928005         0.979554        -0.718953
 H        -4.361592        -0.086723        -3.495744
 H        -4.303901         1.727048        -3.063990
