19
Iteration:  3720
 C         1.325867        -0.301735         0.646562
 C         0.224686         0.145270        -0.247203
 C        -0.966027         0.453792        -0.442246
 C        -2.388816         0.837094        -0.502718
 O        -2.798844         1.153612         0.845050
 C        -3.241117        -0.359639        -0.829197
 C        -4.725574        -0.100068        -1.022239
 C        -4.446615        -0.190941        -2.514510
 O        -3.050109        -0.378494        -2.318531
 H         2.246974         0.231037         0.327248
 H         1.112999         0.024971         1.674464
 H         1.370455        -1.333626         0.767661
 H        -2.557831         1.552527        -1.347097
 H        -2.352536         2.014309         1.140902
 H        -3.069234        -1.335851        -0.358396
 H        -5.209035        -0.981240        -0.570185
 H        -4.923479         0.820215        -0.492415
 H        -4.872310        -1.112843        -2.899103
 H        -4.636623         0.683515        -3.223676
