19
Iteration:  1703
 C         1.309790        -0.214829        -0.023951
 C        -0.119292         0.026482        -0.076497
 C        -1.206941         0.438093         0.094959
 C        -2.646121         0.495626         0.157190
 O        -2.972433        -0.212396         1.408427
 C        -3.275057        -0.200710        -1.099652
 C        -4.741189         0.148025        -1.610082
 C        -3.864446         0.569573        -2.919980
 O        -2.692894         0.436568        -2.225517
 H         1.885814         0.675064        -0.381501
 H         1.630159        -0.242753         0.980555
 H         1.822721        -1.145515        -0.581864
 H        -2.994676         1.543884         0.554759
 H        -2.504881        -1.086371         1.246831
 H        -3.207824        -1.218445        -0.786956
 H        -5.351232        -0.744908        -1.611700
 H        -5.138090         1.014366        -1.061513
 H        -3.904732        -0.245093        -3.653933
 H        -4.162027         1.481614        -3.354406
