19
Iteration:  4047charge 0 multiplicity 1
 C         1.392629        -0.408590        -0.061851
 C         0.046921         0.071939        -0.198264
 C        -1.175018         0.230203        -0.099628
 C        -2.504258         0.872266        -0.200963
 O        -2.889661         1.692127         0.889532
 C        -3.510973        -0.246200        -0.581287
 C        -4.777677         0.157517        -1.454788
 C        -3.966635        -0.343997        -2.719101
 O        -2.851540        -0.771253        -1.806955
 H         1.930959        -0.428304        -1.095832
 H         2.111687         0.296833         0.446903
 H         1.508657        -1.472047         0.425374
 H        -2.231850         1.631345        -1.061750
 H        -2.288833         1.443313         1.657200
 H        -3.681039        -1.049201         0.102943
 H        -5.598871        -0.574728        -1.422234
 H        -5.129482         1.201873        -1.408541
 H        -4.338803        -1.339124        -3.170996
 H        -3.577714         0.334383        -3.462157
