19
Iteration:  1816
 C         1.648077        -0.121731         0.330921
 C         0.125411        -0.147100         0.271824
 C        -1.096118         0.084468         0.096471
 C        -2.408690         0.465437        -0.147278
 O        -3.243625         0.075622         1.031255
 C        -3.073668        -0.241133        -1.307427
 C        -4.627867        -0.027916        -1.270177
 C        -4.407026         0.658493        -2.636060
 O        -2.975836         0.476650        -2.583275
 H         2.006565         0.199869         1.311068
 H         1.984449        -1.095156        -0.132526
 H         1.848949         0.818927        -0.274798
 H        -2.484765         1.586368        -0.179810
 H        -2.700059         0.138240         1.913407
 H        -2.722828        -1.258514        -1.340130
 H        -5.248013        -0.947212        -1.244128
 H        -4.829967         0.654232        -0.450660
 H        -4.754035         0.027416        -3.434526
 H        -4.610569         1.750884        -2.878796
