19
Iteration:  4425charge 0 multiplicity 1
 C         1.552194        -0.241079         0.453249
 C         0.143039        -0.043669         0.105482
 C        -0.934812         0.430699        -0.179386
 C        -2.256450         0.886181        -0.537107
 O        -2.875245         1.591344         0.584480
 C        -3.234442        -0.333828        -0.883775
 C        -4.671487         0.112109        -0.994480
 C        -4.609386        -0.384773        -2.501806
 O        -3.200981        -0.841483        -2.224936
 H         2.002937        -0.887449        -0.382792
 H         2.253025         0.581646         0.447320
 H         1.612386        -0.786027         1.359469
 H        -2.146387         1.667232        -1.300375
 H        -2.631808         2.488754         0.645619
 H        -3.070596        -1.175791        -0.072029
 H        -5.353535        -0.575045        -0.483832
 H        -4.712981         1.147000        -0.664969
 H        -5.107708        -1.241980        -3.050321
 H        -4.586069         0.438310        -3.281631
