19
Iteration:  4594
 C         1.573088        -0.412141         0.144775
 C         0.199773         0.054134        -0.001493
 C        -0.927012         0.512374         0.049478
 C        -2.348815         0.863294        -0.402513
 O        -2.960163         1.664337         0.742970
 C        -3.410190        -0.180736        -0.813146
 C        -4.740027         0.290077        -1.336286
 C        -4.393964        -0.654980        -2.578730
 O        -3.090083        -0.903776        -1.987992
 H         2.132946         0.291621         0.687970
 H         1.767974        -1.485262         0.461532
 H         1.958907        -0.611199        -0.940333
 H        -2.184629         1.592620        -1.264740
 H        -2.199518         2.140266         0.998203
 H        -3.557520        -0.823597         0.188053
 H        -5.638966        -0.007963        -0.723169
 H        -4.738396         1.406137        -1.519018
 H        -4.952067        -1.593181        -2.718975
 H        -4.315209         0.024662        -3.462398
