19
Iteration:  2778
 C         1.472764        -0.204546        -0.232802
 C         0.075490         0.011245         0.042099
 C        -1.084112         0.281687         0.240811
 C        -2.443498         0.701953        -0.042707
 O        -3.160641         0.694162         1.222033
 C        -3.290522        -0.265335        -0.888996
 C        -4.700401         0.217387        -1.478860
 C        -4.020723         0.281086        -2.792187
 O        -2.837846        -0.401071        -2.204908
 H         2.145104         0.589508         0.106214
 H         1.494828        -1.247156         0.213687
 H         1.747155        -0.463964        -1.216205
 H        -2.516452         1.674660        -0.509857
 H        -4.062800         0.735887         0.986224
 H        -3.335394        -1.203240        -0.324143
 H        -5.477048        -0.546443        -1.267450
 H        -5.088766         1.157348        -1.013087
 H        -4.468405        -0.227504        -3.656162
 H        -3.655342         1.314130        -3.214544
