19
Iteration:  3004charge 0 multiplicity 1
 C         1.483548        -0.344435        -0.051529
 C         0.082017         0.095562         0.177546
 C        -1.089169         0.426946        -0.035057
 C        -2.513030         0.796326        -0.039207
 O        -3.191203         0.813899         1.172798
 C        -3.184705        -0.199997        -0.958361
 C        -4.633248         0.096120        -1.305206
 C        -4.229794        -0.183484        -2.771653
 O        -2.835710        -0.139325        -2.422986
 H         1.910732         0.152142        -0.947657
 H         2.021943        -0.003792         0.831093
 H         1.571792        -1.483938         0.024881
 H        -2.562293         1.850370        -0.448747
 H        -2.511721         0.622589         1.926851
 H        -2.904434        -1.211199        -0.524493
 H        -5.240952        -0.621874        -0.703911
 H        -5.010969         1.126480        -1.148510
 H        -4.437964        -1.202746        -3.177073
 H        -4.489311         0.508815        -3.500498
