19
Iteration:  4154
 C         1.420271        -0.474729        -0.052224
 C         0.177479         0.232243        -0.130381
 C        -1.053149         0.456487         0.072309
 C        -2.496580         0.820351        -0.211080
 O        -3.021082         1.568936         0.842037
 C        -3.435292        -0.295402        -0.739847
 C        -4.686489         0.297300        -1.358951
 C        -4.088518        -0.388565        -2.710780
 O        -2.961211        -0.937530        -1.903661
 H         2.151625         0.268184        -0.064193
 H         1.635773        -1.115249         0.772711
 H         1.628076        -1.071530        -1.000370
 H        -2.242794         1.420116        -1.098809
 H        -2.196178         1.711600         1.383353
 H        -3.690731        -0.996335         0.173453
 H        -5.703531         0.134601        -0.964782
 H        -4.583753         1.374063        -1.547802
 H        -4.737024        -1.189912        -3.106847
 H        -3.694684         0.355474        -3.450465
