19
Iteration:  4718
 C         1.306948        -0.562982        -0.026278
 C        -0.025442        -0.007228         0.001089
 C        -1.125593         0.540969        -0.227361
 C        -2.434267         1.124384        -0.370692
 O        -2.735601         1.708534         0.856737
 C        -3.452963         0.054163        -0.731133
 C        -4.780032         0.136772        -1.465774
 C        -4.081633        -0.854457        -2.499800
 O        -2.849650        -0.801564        -1.792114
 H         1.595616        -1.518371         0.576759
 H         1.490065        -0.693924        -1.138683
 H         2.111810         0.122923         0.346371
 H        -2.539389         1.939334        -1.139226
 H        -2.422811         1.174556         1.554934
 H        -3.507794        -0.633518         0.217820
 H        -5.752570        -0.152149        -0.974616
 H        -5.028729         1.074661        -2.011769
 H        -4.495490        -1.888586        -2.640970
 H        -4.054023        -0.333429        -3.446251
