19
Iteration:  2234charge 0 multiplicity 1
 C         1.455201        -0.149488        -0.247957
 C        -0.025383         0.042675        -0.084510
 C        -1.168655         0.286215         0.100840
 C        -2.603558         0.518516         0.240209
 O        -3.146283         0.176677         1.549128
 C        -3.315592        -0.182105        -0.994742
 C        -4.649116         0.410652        -1.573025
 C        -3.922266         0.400869        -2.911728
 O        -2.659682        -0.160867        -2.286388
 H         1.999729        -0.869019         0.430394
 H         1.805237        -0.513659        -1.295008
 H         1.894716         0.901936        -0.002945
 H        -2.934744         1.538526         0.111932
 H        -4.123746         0.452196         1.511025
 H        -3.535173        -1.255096        -0.824912
 H        -5.615993        -0.107104        -1.502048
 H        -4.889568         1.420034        -1.271509
 H        -4.133838        -0.380754        -3.726008
 H        -3.899337         1.376762        -3.432423
