19
Iteration:  2855charge 0 multiplicity 1
 C         1.415873        -0.240702        -0.300702
 C         0.035993         0.109360        -0.001524
 C        -1.171092         0.257132         0.118205
 C        -2.525257         0.701705         0.071162
 O        -3.203397         0.706779         1.323028
 C        -3.366221        -0.151471        -0.883448
 C        -4.692246         0.289753        -1.521931
 C        -3.970756         0.021608        -2.908053
 O        -2.672164        -0.322904        -2.124438
 H         1.771093        -0.849400         0.548263
 H         1.477814        -0.896878        -1.217038
 H         2.061218         0.562822        -0.389655
 H        -2.606097         1.763933        -0.485692
 H        -2.573346         0.438541         2.049829
 H        -3.482221        -1.108929        -0.365005
 H        -5.543851        -0.410480        -1.333478
 H        -4.870315         1.330180        -1.196196
 H        -4.194991        -0.945546        -3.404000
 H        -3.838936         0.888019        -3.721962
