19
Iteration:  4568
 C         1.442950        -0.294121         0.222231
 C         0.120294         0.002555        -0.090004
 C        -1.078662         0.259241        -0.265394
 C        -2.355242         0.843223        -0.358326
 O        -2.870738         1.729264         0.680704
 C        -3.350921        -0.291550        -0.738058
 C        -4.732333         0.294910        -1.216759
 C        -4.342168        -0.548380        -2.509484
 O        -2.984799        -0.830588        -2.014217
 H         1.848876         0.701980         0.636974
 H         1.537857        -0.930449         1.110758
 H         2.024463        -0.850264        -0.501857
 H        -2.244086         1.569429        -1.236014
 H        -2.190876         1.851901         1.298812
 H        -3.368798        -0.982733         0.141060
 H        -5.669351        -0.076277        -0.851446
 H        -4.504607         1.367923        -1.257653
 H        -4.911917        -1.522104        -2.574382
 H        -4.372422         0.068760        -3.441418
