19
Iteration:   947charge 0 multiplicity 1
 C         1.416807         0.054981         0.063989
 C        -0.002109         0.252382        -0.142858
 C        -1.159982         0.386404         0.198731
 C        -2.679035         0.280276         0.138648
 O        -3.114086        -0.441196         1.263508
 C        -3.370705        -0.363599        -1.159299
 C        -4.628962         0.419545        -1.496193
 C        -3.855697         1.000658        -2.625572
 O        -2.785980        -0.085368        -2.522544
 H         1.927011         1.043796         0.052831
 H         1.778043        -0.512326         0.972572
 H         1.907254        -0.705282        -0.771443
 H        -2.941731         1.358009         0.367442
 H        -2.347351        -0.849284         1.779654
 H        -3.595008        -1.412811        -0.849840
 H        -5.539943        -0.154068        -1.821493
 H        -5.037317         1.113294        -0.736575
 H        -4.117265         0.911442        -3.744717
 H        -3.373134         1.999619        -2.310270
