19
Iteration:  2363
 C         1.470713        -0.250650         0.069536
 C         0.011473        -0.057425        -0.010587
 C        -1.134076         0.359729        -0.188962
 C        -2.592384         0.578856        -0.011185
 O        -3.028020         0.507787         1.341449
 C        -3.208470        -0.284004        -1.010731
 C        -4.727623        -0.068243        -1.436257
 C        -4.116347         0.420492        -2.704890
 O        -2.745712         0.074970        -2.340601
 H         1.932017        -0.488294        -0.870417
 H         1.843804         0.489327         0.635494
 H         1.713057        -1.191375         0.642569
 H        -2.616072         1.727188        -0.267977
 H        -3.910413         0.812234         1.573470
 H        -2.991345        -1.335638        -0.792008
 H        -5.255752        -1.056835        -1.589609
 H        -5.287665         0.674794        -0.831001
 H        -4.457819        -0.135243        -3.639598
 H        -4.111656         1.558521        -2.824441
