19
Iteration:  1955
 C         1.514854        -0.445056         0.383618
 C         0.150725         0.194666         0.150735
 C        -1.008262         0.450620         0.074658
 C        -2.495833         0.622634        -0.171872
 O        -3.074063         0.065716         1.004017
 C        -3.113054        -0.252363        -1.273631
 C        -4.690148        -0.060736        -1.251357
 C        -4.360801         0.577800        -2.599777
 O        -2.964040         0.258781        -2.571041
 H         1.767776        -1.399917        -0.033754
 H         2.177774         0.232383        -0.019863
 H         1.703696        -0.638100         1.449350
 H        -2.854932         1.769228        -0.310210
 H        -2.917398         0.634192         1.731911
 H        -2.874558        -1.367965        -1.163897
 H        -5.125242        -1.092487        -1.181996
 H        -5.059127         0.553501        -0.397793
 H        -4.954938         0.163208        -3.546500
 H        -4.314069         1.666992        -2.691346
