19
Iteration:  4085
 C         1.442599        -0.345100        -0.177913
 C        -0.056965        -0.186787        -0.023516
 C        -1.090841         0.435705         0.037112
 C        -2.389003         0.980714        -0.283434
 O        -2.978059         1.667644         0.810948
 C        -3.392481        -0.316570        -0.642860
 C        -4.667990         0.256511        -1.393114
 C        -3.933401        -0.256995        -2.672378
 O        -2.990315        -1.008188        -1.830784
 H         1.455729         0.301212        -1.089141
 H         1.991795         0.062794         0.708483
 H         1.873461        -1.250025        -0.507557
 H        -2.407176         1.632405        -1.183870
 H        -3.664669         1.087840         1.294550
 H        -3.353252        -0.931377         0.356507
 H        -5.526857        -0.402093        -1.259135
 H        -4.931363         1.293409        -1.135698
 H        -4.588847        -0.931468        -3.199115
 H        -3.387125         0.538823        -3.252392
