19
Iteration:  4832
 C         1.303391        -0.648440        -0.066045
 C        -0.015486         0.038161         0.057466
 C        -0.998815         0.656388        -0.172351
 C        -2.404005         1.072272        -0.446886
 O        -2.927858         1.779692         0.735295
 C        -3.242125        -0.198835        -0.687807
 C        -4.589335         0.146572        -1.241411
 C        -4.234582        -0.678202        -2.476419
 O        -2.915542        -0.912370        -1.888286
 H         1.293310        -1.229679        -1.053170
 H         2.007140         0.108403         0.245458
 H         1.359350        -1.301303         0.843582
 H        -2.399377         1.742889        -1.334796
 H        -3.213849         2.655709         0.559874
 H        -3.114353        -0.946946         0.209580
 H        -5.384139        -0.332777        -0.662857
 H        -4.956749         1.168210        -1.394361
 H        -4.827670        -1.555033        -2.641680
 H        -4.179029        -0.067813        -3.386885
