19
Iteration:  1011charge 0 multiplicity 1
 C         1.516134         0.152219        -0.092251
 C         0.023097         0.138802         0.099217
 C        -1.187714         0.011500         0.111515
 C        -2.590350         0.211433         0.075238
 O        -3.214483        -0.168784         1.348892
 C        -3.384428        -0.395983        -1.151330
 C        -4.743915         0.293908        -1.572889
 C        -3.810015         1.032651        -2.668714
 O        -2.749731         0.101847        -2.335766
 H         2.035925         0.607349         0.795978
 H         2.012364        -0.740758        -0.249553
 H         1.556151         0.768006        -1.017399
 H        -2.684460         1.302580        -0.166571
 H        -2.652881        -1.024022         1.514881
 H        -3.336206        -1.552469        -1.192371
 H        -5.303878        -0.581786        -2.006304
 H        -5.286657         0.978188        -0.865754
 H        -4.223775         0.643407        -3.633558
 H        -3.659084         2.080271        -2.456226
