19
Iteration:   173
 C         1.594873        -0.056131         0.374596
 C         0.145605        -0.049978         0.076383
 C        -1.061225         0.079768        -0.037819
 C        -2.508639         0.025970         0.002600
 O        -3.009977        -0.901141         1.009672
 C        -3.113075        -0.103131        -1.429813
 C        -4.779322         0.139446        -1.440170
 C        -4.337347         1.214945        -2.435258
 O        -2.920971         1.013971        -2.335287
 H         2.219893         0.464506        -0.461110
 H         1.684995         0.471427         1.382272
 H         2.069723        -1.154654         0.477971
 H        -2.860790         1.107526         0.218462
 H        -3.847816        -1.272330         0.555301
 H        -2.881029        -1.116007        -1.838879
 H        -5.440890        -0.601580        -1.934952
 H        -5.086757         0.707497        -0.520567
 H        -4.678279         1.111393        -3.468575
 H        -4.656442         2.216946        -2.000651
