19
Iteration:   826
 C         1.478751        -0.016112        -0.084349
 C         0.082514         0.044395         0.099492
 C        -1.108501         0.021022         0.272509
 C        -2.506302         0.359714         0.128696
 O        -3.378835        -0.382436         1.035453
 C        -3.113847        -0.106538        -1.147742
 C        -4.608451         0.210436        -1.395042
 C        -4.130526         0.591651        -2.839695
 O        -2.765427         0.665839        -2.265680
 H         1.922671        -0.527546        -1.006427
 H         2.010559         0.914581        -0.180955
 H         1.878743        -0.576284         0.921206
 H        -2.816696         1.447130         0.266450
 H        -2.859028        -0.921871         1.707232
 H        -2.992911        -1.168516        -1.357108
 H        -5.363019        -0.593960        -1.231295
 H        -4.921369         1.077541        -0.760225
 H        -4.173708        -0.258016        -3.559533
 H        -4.596992         1.577656        -2.990826
