19
Iteration:   937charge 0 multiplicity 1
 C         1.461255         0.027921         0.056864
 C         0.014805         0.269083        -0.063111
 C        -1.205232         0.303195         0.108127
 C        -2.676446         0.309875         0.108504
 O        -3.085612        -0.471285         1.348643
 C        -3.360816        -0.271126        -1.138098
 C        -4.693955         0.414866        -1.531399
 C        -3.834754         0.966094        -2.678364
 O        -2.785603        -0.051431        -2.480966
 H         2.018543         0.933514        -0.197785
 H         1.704557        -0.211565         1.155596
 H         1.832136        -0.737173        -0.804869
 H        -3.246418         1.278470         0.217146
 H        -2.276906        -0.887295         1.674726
 H        -3.401564        -1.337168        -0.902276
 H        -5.414260        -0.302566        -1.960169
 H        -5.060997         1.067603        -0.745492
 H        -4.354172         1.043382        -3.700020
 H        -3.414103         2.012077        -2.440643
