19
Iteration:  1272charge 0 multiplicity 1
 C         1.580323        -0.253230         0.330077
 C         0.119239        -0.134794         0.331505
 C        -1.039104         0.134966         0.107284
 C        -2.401894         0.458778        -0.016517
 O        -3.114747        -0.065788         1.127752
 C        -3.036968        -0.089785        -1.337055
 C        -4.615999        -0.127565        -1.406789
 C        -4.493096         0.601584        -2.786847
 O        -3.059612         0.811222        -2.536769
 H         2.014124         0.245477        -0.614691
 H         2.179473         0.055916         1.142761
 H         1.940576        -1.237842         0.387365
 H        -2.485824         1.615633         0.091596
 H        -2.668311        -0.772707         1.526953
 H        -2.525970        -1.066886        -1.538713
 H        -5.146355        -1.093467        -1.241967
 H        -5.200470         0.591018        -0.757941
 H        -4.771488        -0.127247        -3.579786
 H        -4.994531         1.559046        -3.006778
