19
Iteration:  3163
 C         1.515977        -0.263300         0.631982
 C         0.294009         0.179610        -0.103514
 C        -0.896406         0.459029        -0.226427
 C        -2.402890         0.754508        -0.451881
 O        -2.909433         0.748577         0.977109
 C        -3.222573        -0.305973        -1.056009
 C        -4.798644        -0.022442        -1.107392
 C        -4.503330         0.136981        -2.601314
 O        -3.077321        -0.372930        -2.429504
 H         1.113937        -0.750378         1.632905
 H         2.180087        -1.077941         0.045094
 H         2.351360         0.499733         0.794754
 H        -2.533300         1.749384        -0.875774
 H        -3.540181         1.515994         1.168911
 H        -2.991015        -1.254676        -0.381322
 H        -5.390379        -0.907828        -0.823408
 H        -5.022393         0.852804        -0.500283
 H        -4.972957        -0.281089        -3.427483
 H        -4.326190         1.140420        -2.912906
