19
Iteration:  1281charge 0 multiplicity 1
 C         1.617575        -0.242998         0.327068
 C         0.194527        -0.147924         0.337653
 C        -0.994085         0.099786         0.098619
 C        -2.442930         0.415112        -0.054094
 O        -3.225292        -0.062452         1.129415
 C        -3.047899        -0.032342        -1.346592
 C        -4.562363        -0.065806        -1.361592
 C        -4.545498         0.569455        -2.727079
 O        -3.034906         0.772276        -2.586443
 H         2.030636         0.360164        -0.488629
 H         1.951086         0.211509         1.325648
 H         1.928017        -1.240029         0.138131
 H        -2.597133         1.560032         0.028695
 H        -2.654440        -0.660646         1.559478
 H        -2.628299        -1.063533        -1.584717
 H        -4.997185        -1.104122        -1.331530
 H        -4.951249         0.557708        -0.512269
 H        -4.608520         0.047965        -3.740098
 H        -5.042091         1.601628        -2.847336
