19
Iteration:   268
 C         1.410858        -0.054956        -0.158644
 C        -0.028063         0.167002         0.008527
 C        -1.193850         0.055314         0.322260
 C        -2.620880         0.106383         0.172383
 O        -3.316703        -0.933016         0.927622
 C        -3.051027        -0.067205        -1.225121
 C        -4.529856         0.123877        -1.460596
 C        -4.104567         1.029958        -2.646997
 O        -2.688240         1.038118        -2.085082
 H         1.935470         0.726254         0.439241
 H         1.562953        -1.001709         0.289719
 H         1.809466         0.035847        -1.203735
 H        -2.956679         1.101031         0.488914
 H        -2.602259        -1.421916         1.262096
 H        -2.608126        -0.998746        -1.633846
 H        -4.931581        -0.870315        -1.688357
 H        -5.270708         0.618224        -0.655374
 H        -4.022599         0.548828        -3.667880
 H        -4.524584         2.015276        -2.714497
