19
Iteration:  1936
 C         1.423751        -0.370904         0.468764
 C         0.073718         0.052934         0.104863
 C        -0.996917         0.608676        -0.050830
 C        -2.426782         0.621816        -0.143318
 O        -3.047590         0.028012         1.032777
 C        -3.030390        -0.293294        -1.242560
 C        -4.652211        -0.034188        -1.255859
 C        -4.418766         0.623825        -2.609345
 O        -2.981164         0.231834        -2.600732
 H         1.368502        -1.445722         0.291210
 H         2.266658         0.022104        -0.169946
 H         1.577043        -0.281893         1.625850
 H        -2.727320         1.609165        -0.345615
 H        -2.474651         0.019640         1.760136
 H        -2.654883        -1.333822        -1.114495
 H        -5.200635        -0.969249        -1.373433
 H        -4.857621         0.490079        -0.330475
 H        -4.993860         0.296130        -3.466463
 H        -4.603856         1.695417        -2.541545
