19
Iteration:   381charge 0 multiplicity 1
 C         1.398577         0.172419        -0.272902
 C        -0.075192         0.169958        -0.194340
 C        -1.193806         0.016653         0.295549
 C        -2.700403         0.030613         0.267292
 O        -3.388976        -0.896603         1.118677
 C        -3.166951        -0.176945        -1.138913
 C        -4.572161         0.157199        -1.688743
 C        -3.819693         1.033522        -2.667620
 O        -2.602768         0.828081        -1.949887
 H         1.853856        -0.652670         0.134651
 H         1.787229         0.329998        -1.319819
 H         1.789304         1.109703         0.245456
 H        -2.926060         1.059006         0.415403
 H        -3.145875        -0.549089         2.042022
 H        -2.793719        -1.181988        -1.460674
 H        -5.125173        -0.756900        -2.085423
 H        -5.119670         0.882844        -0.934175
 H        -3.764774         0.673356        -3.727846
 H        -4.227376         2.081550        -2.668657
