19
Iteration:  3866
 C         1.557455        -0.331721         0.227349
 C         0.052861        -0.187314         0.206557
 C        -1.062936         0.233095        -0.070418
 C        -2.373117         0.903973        -0.329677
 O        -2.879137         1.723360         0.797766
 C        -3.208454        -0.195174        -0.959006
 C        -4.724794        -0.100919        -1.086255
 C        -4.449125        -0.613915        -2.528800
 O        -2.993837        -0.278222        -2.430785
 H         1.818243        -0.419657         1.298104
 H         1.946426        -1.183233        -0.410455
 H         2.092794         0.558508        -0.089003
 H        -2.089160         1.707075        -1.105803
 H        -3.436816         1.131471         1.298750
 H        -2.862124        -1.135658        -0.543423
 H        -5.210596        -0.654454        -0.247682
 H        -5.064243         0.953245        -1.116795
 H        -4.681694        -1.680409        -2.623563
 H        -5.135168        -0.105472        -3.332785
