19
Iteration:  3821charge 0 multiplicity 1
 C         1.614462        -0.404594         0.395963
 C         0.282147         0.050447         0.069000
 C        -0.891402         0.382982         0.064617
 C        -2.272400         0.782385        -0.362680
 O        -3.039602         1.531472         0.639316
 C        -3.182713        -0.342757        -0.975986
 C        -4.700937        -0.068133        -0.966272
 C        -4.551046        -0.458516        -2.486031
 O        -3.150705        -0.250277        -2.458495
 H         1.954285         0.176945         1.289054
 H         1.618572        -1.529110         0.538907
 H         2.367162        -0.226991        -0.320030
 H        -2.165315         1.418217        -1.314935
 H        -3.967201         1.219794         0.679590
 H        -3.045007        -1.346432        -0.613657
 H        -5.499449        -0.630190        -0.446723
 H        -4.929540         1.008689        -1.002124
 H        -4.898241        -1.445574        -2.850830
 H        -5.052656         0.342565        -3.199857
