19
Iteration:  3529
 C         1.451717        -0.262605        -0.328990
 C        -0.018983         0.005695        -0.094792
 C        -1.141808         0.476634         0.137585
 C        -2.507638         0.907537         0.001922
 O        -3.072585         1.031591         1.277784
 C        -3.428849        -0.168979        -0.797872
 C        -4.713215         0.269584        -1.691339
 C        -3.898242        -0.357288        -2.778019
 O        -2.784660        -0.629623        -1.926180
 H         1.847601        -1.045629         0.210016
 H         1.574362        -0.660962        -1.314366
 H         1.917910         0.784130        -0.338343
 H        -2.613677         1.867366        -0.599777
 H        -2.629365         1.754039         1.741129
 H        -3.574170        -0.977401        -0.152891
 H        -5.719026        -0.125469        -1.430148
 H        -4.872102         1.360759        -1.682659
 H        -4.410204        -1.301415        -3.191221
 H        -3.810554         0.221527        -3.693484
