19
Iteration:  3691
 C         1.344231        -0.275124         0.525164
 C         0.156603         0.237219        -0.059011
 C        -0.991749         0.433665        -0.452984
 C        -2.367642         0.865495        -0.407334
 O        -2.759418         1.270113         0.987706
 C        -3.222391        -0.355198        -0.907581
 C        -4.771742        -0.082476        -1.117683
 C        -4.431313        -0.175510        -2.577200
 O        -3.058985        -0.582892        -2.375848
 H         2.231041        -0.132720        -0.194080
 H         1.688149         0.460468         1.356108
 H         1.317657        -1.342669         0.875220
 H        -2.472240         1.632332        -1.184234
 H        -2.226173         0.805753         1.631261
 H        -3.129570        -1.308313        -0.363450
 H        -5.460282        -0.762762        -0.600663
 H        -4.990017         0.861211        -0.597697
 H        -5.011594        -0.949960        -3.075869
 H        -4.531195         0.737089        -3.168007
