19
Iteration:  3265
 C         1.560250        -0.256557         0.271904
 C         0.186772         0.045379        -0.150812
 C        -0.996620         0.306159        -0.057237
 C        -2.384809         0.771560        -0.264329
 O        -3.057699         0.970780         1.122175
 C        -3.259305        -0.281958        -0.944299
 C        -4.763305         0.072800        -1.252951
 C        -4.328990         0.014934        -2.692401
 O        -2.952466        -0.380859        -2.291786
 H         1.945769        -1.091765        -0.306528
 H         2.253554         0.604542         0.176262
 H         1.724772        -0.681278         1.365849
 H        -2.369781         1.655789        -0.884391
 H        -3.751865         1.576866         0.890559
 H        -3.273468        -1.261968        -0.395786
 H        -5.453579        -0.699771        -0.960128
 H        -5.235374         1.018621        -1.037132
 H        -4.684372        -0.781378        -3.251724
 H        -4.246941         0.916346        -3.273116
