19
Iteration:  1596
 C         1.356944         0.022704        -0.441329
 C         0.030513         0.016805         0.048614
 C        -1.164538         0.162712         0.352606
 C        -2.666409         0.435959         0.300602
 O        -3.420704        -0.284552         1.329770
 C        -3.213506        -0.103695        -1.078653
 C        -4.597465         0.301877        -1.540204
 C        -3.861073         0.532482        -2.875956
 O        -2.549089         0.232018        -2.313953
 H         1.417647        -0.439134        -1.403678
 H         1.861950         1.105795        -0.377615
 H         1.979326        -0.451851         0.343615
 H        -2.870541         1.448006         0.477160
 H        -3.354635         0.312327         2.143554
 H        -3.102378        -1.192538        -0.731903
 H        -5.395474        -0.432996        -1.399523
 H        -4.934739         1.199539        -0.984144
 H        -4.036094        -0.098511        -3.792917
 H        -3.753736         1.703404        -3.175831
