19
Iteration:  3274
 C         1.534190        -0.278876         0.188542
 C         0.165635         0.085845        -0.085877
 C        -1.025591         0.337558         0.064588
 C        -2.387382         0.732989        -0.195983
 O        -3.046597         0.969119         1.055917
 C        -3.282873        -0.287276        -0.912062
 C        -4.700631         0.110348        -1.239975
 C        -4.288248        -0.011381        -2.763672
 O        -2.963653        -0.407029        -2.336644
 H         1.917746        -0.889194        -0.669192
 H         2.263018         0.630840         0.078322
 H         1.412065        -0.789603         1.212460
 H        -2.328837         1.720707        -0.740782
 H        -3.677607         1.661890         0.963195
 H        -3.272683        -1.275073        -0.231833
 H        -5.383833        -0.657374        -0.895572
 H        -4.934073         1.050552        -0.774734
 H        -4.764076        -0.839319        -3.244553
 H        -4.334816         0.883067        -3.345681
