19
Iteration:     6charge 0 multiplicity 1
 C         1.505403        -0.047870         0.097614
 C         0.099322         0.019635         0.056480
 C        -1.112881         0.032571         0.105251
 C        -2.594661         0.023701         0.080704
 O        -3.110577        -0.997477         0.896706
 C        -3.148272        -0.115715        -1.345826
 C        -4.685235         0.119137        -1.494363
 C        -4.266235         1.293286        -2.382790
 O        -2.809332         1.087372        -2.163373
 H         1.701231        -0.443495         1.121401
 H         2.059635        -0.524934        -0.736078
 H         1.987094         1.032252         0.166332
 H        -3.080788         0.973214         0.447238
 H        -2.673896        -1.819635         0.568517
 H        -2.804443        -1.038973        -1.868910
 H        -5.122712        -0.665943        -2.144301
 H        -5.117291         0.276745        -0.483831
 H        -4.469802         1.247524        -3.485062
 H        -4.422513         2.381955        -2.189786
