19
Iteration:  4620
 C         1.523859        -0.479801         0.009765
 C         0.231093         0.149959         0.254859
 C        -0.903284         0.443606        -0.032858
 C        -2.295807         1.034916        -0.412036
 O        -3.059377         1.539162         0.731904
 C        -3.320848        -0.084943        -0.743851
 C        -4.677719         0.322449        -1.461354
 C        -4.380454        -0.674952        -2.520097
 O        -3.116811        -0.976464        -1.950544
 H         2.482795        -0.262152         0.617236
 H         1.429790        -1.505490        -0.308463
 H         1.701418        -0.250664        -1.014461
 H        -2.154755         1.827737        -1.178603
 H        -2.643099         2.338629         1.003130
 H        -3.369925        -0.611670         0.204598
 H        -5.554549         0.039823        -0.834956
 H        -4.865196         1.368957        -1.616514
 H        -5.069422        -1.511197        -2.504422
 H        -4.353474        -0.209596        -3.464600
