19
Iteration:   778
 C         1.510812        -0.202956        -0.054547
 C         0.097453         0.017238         0.282354
 C        -1.113459         0.164631         0.346298
 C        -2.515676         0.372191         0.204136
 O        -3.258210        -0.427237         1.110586
 C        -2.996488        -0.040992        -1.258366
 C        -4.580270        -0.065408        -1.451671
 C        -4.255895         0.622652        -2.869908
 O        -2.906100         0.899265        -2.420016
 H         1.625451        -1.317042        -0.411468
 H         1.690932         0.310570        -1.055884
 H         2.258921         0.015600         0.621447
 H        -2.802998         1.373066         0.511702
 H        -3.084742         0.044703         1.951730
 H        -2.673454        -1.043080        -1.441942
 H        -5.230201        -0.937176        -1.330623
 H        -5.031154         0.754526        -0.867192
 H        -4.165265         0.033995        -3.813795
 H        -4.810633         1.568087        -3.057576
