19
Iteration:   762
 C         1.486067        -0.295777        -0.016257
 C         0.067579         0.002177         0.136138
 C        -1.126659         0.199916         0.336274
 C        -2.552842         0.479605         0.135103
 O        -3.159542        -0.441263         1.120106
 C        -3.091386        -0.033357        -1.242389
 C        -4.553412        -0.107590        -1.530592
 C        -4.273896         0.633363        -2.788120
 O        -2.874598         0.926324        -2.339438
 H         1.667325        -1.313029         0.162693
 H         1.810982         0.031186        -1.007640
 H         1.893598         0.391698         0.823408
 H        -2.762236         1.576731         0.129621
 H        -3.194074        -0.029566         2.055297
 H        -2.366504        -0.902924        -1.473803
 H        -4.848562        -1.157351        -1.680486
 H        -5.211885         0.355914        -0.788015
 H        -4.228430        -0.133612        -3.620007
 H        -4.773325         1.646476        -2.921273
