19
Iteration:  3810charge 0 multiplicity 1
 C         1.657645        -0.421982         0.454002
 C         0.302855         0.098914         0.200717
 C        -0.874822         0.414507        -0.089202
 C        -2.319908         0.808054        -0.389550
 O        -3.027280         1.507757         0.667774
 C        -3.170203        -0.390755        -1.001911
 C        -4.734088        -0.057941        -1.003678
 C        -4.589949        -0.368745        -2.493632
 O        -3.167601        -0.320736        -2.467317
 H         2.358295         0.055682         1.193229
 H         1.631662        -1.534664         0.717521
 H         1.998460        -0.354492        -0.520270
 H        -2.144818         1.658227        -1.124437
 H        -3.938252         1.070666         0.511961
 H        -2.740682        -1.326070        -0.710892
 H        -5.321844        -0.748200        -0.355561
 H        -4.995167         0.994755        -0.762616
 H        -4.946377        -1.382775        -2.528753
 H        -5.129312         0.378544        -3.235289
