19
Iteration:   373
 C         1.389573         0.205832        -0.293197
 C        -0.046541         0.158156        -0.155441
 C        -1.191244         0.009908         0.262233
 C        -2.697932         0.043521         0.271980
 O        -3.400788        -0.921729         1.180100
 C        -3.158819        -0.206955        -1.223357
 C        -4.571936         0.158333        -1.650549
 C        -3.851186         0.999518        -2.722482
 O        -2.558279         0.899139        -1.938585
 H         1.774283        -0.744035         0.210341
 H         1.717910         0.121394        -1.360473
 H         1.792259         1.076371         0.085373
 H        -2.926783         1.108080         0.637217
 H        -3.539795        -0.478610         2.051067
 H        -2.773887        -1.215467        -1.490279
 H        -5.163695        -0.683172        -2.062333
 H        -5.189366         0.664350        -0.873314
 H        -3.804250         0.725793        -3.785259
 H        -4.096022         2.110361        -2.601509
