19
Iteration:  2449
 C         1.429497        -0.481153         0.240878
 C         0.082789         0.115134         0.139940
 C        -1.015860         0.669756         0.012928
 C        -2.416710         0.763166        -0.177491
 O        -3.009958         0.310918         1.101334
 C        -3.140846        -0.228435        -1.112666
 C        -4.637970        -0.027264        -1.166494
 C        -4.386994         0.257184        -2.706564
 O        -2.898737         0.068401        -2.555822
 H         2.188165         0.277730         0.455511
 H         1.586591        -1.177298         1.090384
 H         1.496520        -1.046335        -0.629513
 H        -2.532607         1.688803        -0.590175
 H        -3.806510         0.778180         1.310417
 H        -2.931245        -1.219303        -0.721334
 H        -5.307515        -0.892811        -0.920242
 H        -4.906691         0.826592        -0.504791
 H        -4.601225        -0.627573        -3.415985
 H        -4.694776         1.271353        -3.049432
