19
Iteration:    65
 C         1.503177        -0.076169         0.460219
 C         0.126115        -0.008387         0.076624
 C        -1.068350         0.044242        -0.166815
 C        -2.576188         0.079716        -0.107986
 O        -2.849050        -0.950605         0.853585
 C        -3.223764        -0.126144        -1.419197
 C        -4.734231         0.135157        -1.468053
 C        -4.287192         1.340735        -2.228230
 O        -2.930789         0.939449        -2.276151
 H         2.024832        -1.105514         0.332048
 H         2.006162         0.495816        -0.352375
 H         1.721979         0.387838         1.323920
 H        -2.886537         1.048682         0.248969
 H        -3.689547        -0.699693         1.339741
 H        -2.910531        -1.095111        -1.837674
 H        -5.282052        -0.586565        -2.074403
 H        -5.402441         0.081734        -0.560755
 H        -4.686034         1.389616        -3.221865
 H        -4.373069         2.338447        -1.678885
