19
Iteration:   368
 C         1.382412         0.207014        -0.331416
 C        -0.045941         0.138671        -0.092002
 C        -1.207458        -0.001840         0.214471
 C        -2.687402         0.053258         0.296084
 O        -3.395901        -0.924642         1.217050
 C        -3.124699        -0.227397        -1.229111
 C        -4.564560         0.127142        -1.640487
 C        -3.871821         1.031541        -2.726483
 O        -2.530109         0.951166        -1.970706
 H         1.756845        -0.593721         0.272519
 H         1.598723        -0.067173        -1.381297
 H         1.918799         1.159738         0.126650
 H        -3.084952         0.946935         0.705142
 H        -3.798567        -0.468412         1.979414
 H        -2.823673        -1.220993        -1.627397
 H        -5.286195        -0.662116        -1.992736
 H        -5.276516         0.570721        -0.835818
 H        -3.804056         0.627084        -3.770548
 H        -4.037162         2.089122        -2.763993
