19
Iteration:  4257charge 0 multiplicity 1
 C         1.288022        -0.552705         0.316184
 C         0.148602         0.271212        -0.073712
 C        -1.010797         0.578594        -0.423131
 C        -2.377426         0.986749        -0.309193
 O        -2.818441         1.472174         0.987514
 C        -3.235590        -0.200840        -0.832994
 C        -4.665933         0.185058        -1.321059
 C        -4.410549        -0.720743        -2.495441
 O        -2.996156        -0.626847        -2.223960
 H         1.308980        -0.615181         1.461610
 H         1.083352        -1.601704         0.033176
 H         2.236314        -0.195817         0.111495
 H        -2.417079         1.702713        -1.128690
 H        -2.011180         1.555080         1.448452
 H        -3.376777        -0.966695         0.041891
 H        -5.538071        -0.152076        -0.752391
 H        -4.587349         1.286276        -1.456098
 H        -4.838109        -1.769571        -2.267540
 H        -4.747016        -0.551782        -3.520632
