19
Iteration:  3965charge 0 multiplicity 1
 C         1.286734        -0.539305         0.193519
 C         0.058708         0.154396        -0.232558
 C        -0.945170         0.833677        -0.194843
 C        -2.352689         1.046534        -0.387539
 O        -2.956100         1.148183         0.933410
 C        -3.272343        -0.215085        -0.783289
 C        -4.603432         0.306226        -1.292529
 C        -4.262637        -0.527950        -2.531196
 O        -2.951108        -0.806725        -2.030180
 H         1.095671        -1.595905         0.178219
 H         2.208306        -0.222323        -0.310837
 H         1.371304        -0.333801         1.237512
 H        -2.432106         2.009892        -0.931032
 H        -3.228666         2.023911         1.024585
 H        -3.271973        -0.994449         0.034114
 H        -5.495035        -0.140644        -0.822460
 H        -4.730848         1.398898        -1.243968
 H        -4.821825        -1.444449        -2.731016
 H        -4.171309        -0.102882        -3.619381
