19
Iteration:  4897charge 0 multiplicity 1
 C         1.546803        -0.465638         0.045306
 C         0.189568        -0.054860        -0.022891
 C        -1.026791         0.273422         0.070116
 C        -2.305477         0.926190        -0.367070
 O        -2.914317         1.968132         0.419812
 C        -3.326711        -0.195508        -0.722026
 C        -4.893465         0.107214        -1.190774
 C        -4.310738        -0.610945        -2.416900
 O        -2.996146        -0.746093        -1.965059
 H         2.288232        -0.203827        -0.688006
 H         1.960023        -0.293403         1.032790
 H         1.700937        -1.451982         0.248011
 H        -2.123930         1.334558        -1.381605
 H        -3.777082         1.674130         0.780711
 H        -3.330658        -0.886158         0.188303
 H        -5.550504        -0.321238        -0.450484
 H        -5.093515         1.198576        -1.342504
 H        -4.748452        -1.580892        -2.584009
 H        -4.321081         0.003585        -3.306607
