19
Iteration:  4000
 C         1.336949        -0.488242         0.062290
 C        -0.012627         0.082013        -0.012658
 C        -1.037036         0.628982        -0.404606
 C        -2.442449         1.079403        -0.292886
 O        -2.866389         1.353358         1.126162
 C        -3.352389        -0.155481        -0.760486
 C        -4.656837         0.199847        -1.432965
 C        -4.112035        -0.502491        -2.713821
 O        -2.967528        -0.893307        -1.944400
 H         1.515888        -1.253788        -0.656400
 H         2.152198         0.197590        -0.085664
 H         1.440643        -0.953336         1.115914
 H        -2.595796         2.111849        -0.817837
 H        -2.682407         2.252990         1.238475
 H        -3.324144        -0.725762         0.172389
 H        -5.326277        -0.498032        -0.892256
 H        -4.930144         1.252090        -1.263782
 H        -4.827897        -1.321705        -2.961923
 H        -3.850374         0.209431        -3.561478
