19
Iteration:  3791charge 0 multiplicity 1
 C         1.547733        -0.407776         0.431946
 C         0.208146         0.154491         0.362097
 C        -0.873836         0.460747        -0.133478
 C        -2.280049         0.870157        -0.526017
 O        -2.855244         1.375090         0.737865
 C        -3.154734        -0.248839        -1.027480
 C        -4.653402        -0.103992        -0.940745
 C        -4.664809        -0.361548        -2.550722
 O        -3.192714        -0.423500        -2.493706
 H         2.097372         0.380686         0.945862
 H         1.561459        -1.337669         1.080217
 H         1.993963        -0.773874        -0.566653
 H        -2.167467         1.678859        -1.258034
 H        -3.817189         1.079974         0.660067
 H        -2.980686        -1.178397        -0.482241
 H        -5.232070        -0.875329        -0.459989
 H        -5.099929         0.891058        -0.822812
 H        -5.213866        -1.218964        -2.917785
 H        -5.003947         0.551738        -2.958830
