19
Iteration:  4400charge 0 multiplicity 1
 C         1.612834        -0.305460         0.380128
 C         0.180383        -0.015004         0.183858
 C        -0.936683         0.364043        -0.018964
 C        -2.247229         0.869347        -0.456232
 O        -2.786963         1.701848         0.567040
 C        -3.282221        -0.191889        -0.866901
 C        -4.878882        -0.082847        -1.084359
 C        -4.598271        -0.453422        -2.465115
 O        -3.162749        -0.734502        -2.307540
 H         1.982160        -1.178365        -0.290992
 H         2.234756         0.455457        -0.130890
 H         1.932080        -0.452300         1.408071
 H        -1.977841         1.653330        -1.200315
 H        -2.397764         2.541200         0.500523
 H        -3.208519        -1.010878        -0.117922
 H        -5.470729        -0.922306        -0.640434
 H        -5.369641         0.924374        -0.993993
 H        -5.084074        -1.318231        -3.044508
 H        -4.736306         0.382388        -3.190257
