19
Iteration:   842
 C         1.511744         0.015911         0.008661
 C         0.032884         0.026349        -0.105349
 C        -1.142038         0.032798         0.209641
 C        -2.597415         0.313045         0.221254
 O        -3.349212        -0.394981         1.222545
 C        -3.168018        -0.120837        -1.143659
 C        -4.615915         0.235110        -1.435105
 C        -4.113970         0.672691        -2.799406
 O        -2.696454         0.607235        -2.390891
 H         1.954603        -0.295835        -0.922189
 H         1.860003         1.058768         0.291661
 H         1.885793        -0.645579         0.693412
 H        -2.576281         1.386290         0.343052
 H        -2.674775        -1.010264         1.707407
 H        -2.802768        -1.211525        -1.241254
 H        -5.293652        -0.606065        -1.389229
 H        -4.944859         1.092624        -0.852936
 H        -4.410681        -0.099982        -3.531912
 H        -4.253418         1.591574        -3.344288
