19
Iteration:  2287charge 0 multiplicity 1
 C         1.507934        -0.119659        -0.277855
 C         0.129027         0.064393         0.121184
 C        -1.120974         0.145682         0.242950
 C        -2.500945         0.550741         0.045019
 O        -3.363102         0.317231         1.226191
 C        -3.259802        -0.289263        -0.968796
 C        -4.630846         0.301652        -1.335000
 C        -3.996329         0.414097        -2.777473
 O        -2.720110        -0.127116        -2.347064
 H         1.601754        -1.177940        -0.634483
 H         1.845000         0.458762        -1.238666
 H         2.226616         0.264465         0.566032
 H        -2.683704         1.550774        -0.263504
 H        -4.277906         0.749626         1.041789
 H        -3.387512        -1.360060        -0.779221
 H        -5.608829        -0.249628        -1.384855
 H        -4.803346         1.308822        -0.887091
 H        -4.447504        -0.065698        -3.562431
 H        -3.755623         1.412412        -2.977438
