19
Iteration:  3103
 C         1.577287        -0.204290         0.318329
 C         0.133261         0.087878         0.314719
 C        -0.985372         0.358026        -0.038999
 C        -2.373432         0.727030        -0.302624
 O        -2.957131         0.941658         0.933774
 C        -3.225750        -0.396681        -1.058998
 C        -4.741466        -0.093816        -1.171348
 C        -4.464294         0.071590        -2.665998
 O        -3.045364        -0.208488        -2.517123
 H         2.040284         0.321543         1.116645
 H         1.628232        -1.226063         0.547115
 H         2.070980         0.088908        -0.609164
 H        -2.524883         1.626533        -1.009276
 H        -2.296052         0.536208         1.604123
 H        -2.915611        -1.300298        -0.626579
 H        -5.552691        -0.784375        -0.896183
 H        -4.969737         0.827776        -0.581691
 H        -4.990097        -0.715736        -3.335518
 H        -4.586187         1.068327        -3.099946
