19
Iteration:  2813charge 0 multiplicity 1
 C         1.450800        -0.184987        -0.289077
 C         0.064441        -0.006831        -0.010300
 C        -1.106234         0.335664         0.138311
 C        -2.520386         0.642325         0.028214
 O        -3.393420         0.691115         1.314407
 C        -3.218496        -0.307560        -0.895133
 C        -4.529821         0.338347        -1.383274
 C        -4.013202         0.187454        -2.815116
 O        -2.743521        -0.439378        -2.273628
 H         2.107975        -0.184649         0.540497
 H         1.543426        -1.295188        -0.399527
 H         1.798652         0.348949        -1.231161
 H        -2.585756         1.640331        -0.247142
 H        -3.606784         1.601544         1.308304
 H        -3.227661        -1.246874        -0.322805
 H        -5.453884        -0.296119        -1.160082
 H        -4.667153         1.470099        -1.140953
 H        -4.597835        -0.489673        -3.381984
 H        -3.737699         1.118416        -3.357332
