19
Iteration:  2461charge 0 multiplicity 1
 C         1.440853        -0.426680         0.261014
 C         0.107702         0.023522         0.151104
 C        -0.984773         0.572819         0.043538
 C        -2.441896         0.802339        -0.225912
 O        -3.030108         0.329348         1.044991
 C        -3.096888        -0.223241        -1.115118
 C        -4.649195        -0.007415        -1.185717
 C        -4.364376         0.174723        -2.674242
 O        -2.944270         0.121492        -2.491325
 H         2.217297         0.274428         0.530223
 H         1.397156        -1.255365         0.887646
 H         1.839455        -0.730929        -0.689364
 H        -2.798725         1.743995        -0.365741
 H        -3.648502         1.020704         1.344488
 H        -2.654430        -1.195453        -0.983063
 H        -5.340792        -0.852867        -0.883218
 H        -5.042563         0.940978        -0.731416
 H        -4.961120        -0.571283        -3.340130
 H        -4.636527         1.184906        -3.161614
