19
Iteration:  4142charge 0 multiplicity 1
 C         1.470753        -0.455058        -0.132520
 C         0.175011         0.243858        -0.045112
 C        -1.026903         0.420515         0.046367
 C        -2.364829         0.768718        -0.179326
 O        -3.130554         1.610120         0.771986
 C        -3.417329        -0.277602        -0.659739
 C        -4.619508         0.353214        -1.398653
 C        -4.106908        -0.347758        -2.693327
 O        -3.004217        -0.998774        -1.890433
 H         2.325619         0.143088        -0.343876
 H         1.620274        -1.009326         0.789106
 H         1.319026        -1.180387        -0.970364
 H        -2.461633         1.432201        -1.022155
 H        -2.855501         1.564195         1.665060
 H        -3.790983        -1.097252         0.082553
 H        -5.517477        -0.088228        -0.929271
 H        -4.671428         1.446419        -1.321039
 H        -4.621742        -1.058144        -3.350492
 H        -3.606930         0.363316        -3.419269
