19
Iteration:  4351charge 0 multiplicity 1
 C         1.435699        -0.389541         0.266356
 C         0.128658         0.035918         0.063538
 C        -0.996365         0.410271        -0.034837
 C        -2.318696         0.796470        -0.429043
 O        -2.878349         1.734098         0.499834
 C        -3.264600        -0.336582        -0.839311
 C        -4.722017        -0.008536        -0.952898
 C        -4.485096        -0.558011        -2.472997
 O        -3.003632        -0.477470        -2.264875
 H         1.547969        -1.422525         0.648871
 H         2.115290        -0.290828        -0.608085
 H         1.824885         0.171974         1.223087
 H        -2.228057         1.487841        -1.300349
 H        -2.404219         1.737379         1.408795
 H        -3.210283        -1.310939        -0.393393
 H        -5.399860        -0.484633        -0.245391
 H        -4.999811         1.007990        -1.141209
 H        -4.792872        -1.560770        -2.644423
 H        -4.761941        -0.055068        -3.405797
