19
Iteration:  4071charge 0 multiplicity 1
 C         1.430696        -0.322233        -0.196196
 C        -0.037000        -0.175377        -0.068037
 C        -1.137680         0.316779        -0.031959
 C        -2.527964         0.897100        -0.245440
 O        -2.927533         1.784057         0.890503
 C        -3.431152        -0.230989        -0.676186
 C        -4.677678         0.167958        -1.356164
 C        -3.944118        -0.283110        -2.686599
 O        -2.903703        -0.967493        -1.850552
 H         2.048170         0.095038        -1.101156
 H         1.908932         0.207610         0.714369
 H         1.695145        -1.385805        -0.019931
 H        -2.371469         1.707287        -1.090790
 H        -3.320342         1.202747         1.514792
 H        -3.627864        -0.984083         0.099075
 H        -5.592963        -0.346493        -1.074657
 H        -4.815744         1.253337        -1.358053
 H        -4.332790        -1.021824        -3.425471
 H        -3.484316         0.531489        -3.229583
