19
Iteration:   552
 C         1.522952         0.157833         0.426299
 C         0.087819        -0.077563         0.254542
 C        -1.029922        -0.062163        -0.278817
 C        -2.563945         0.186345        -0.013595
 O        -3.001101        -0.684387         1.142100
 C        -3.269508        -0.274653        -1.310358
 C        -4.799706         0.182095        -1.526388
 C        -4.266180         1.099582        -2.591080
 O        -2.851518         0.710837        -2.391809
 H         1.887667         1.028988        -0.230529
 H         1.765159         0.478513         1.408474
 H         2.193703        -0.686635         0.087525
 H        -2.463924         1.289707         0.002994
 H        -2.555028        -0.297923         1.908196
 H        -2.912201        -1.313925        -1.533259
 H        -5.509144        -0.517605        -1.917596
 H        -5.266339         0.593378        -0.665503
 H        -4.555707         0.953038        -3.685052
 H        -4.214342         2.247970        -2.384465
