19
Iteration:  4974
 C         1.395656        -0.415029         0.481411
 C         0.182536         0.195294         0.044104
 C        -0.891059         0.547668        -0.483198
 C        -2.223350         0.989033        -0.680389
 O        -2.706396         1.434383         0.669626
 C        -3.291805        -0.175953        -0.822231
 C        -4.761996         0.291956        -1.194632
 C        -4.555203        -0.626992        -2.394527
 O        -3.206868        -0.968061        -1.943446
 H         2.202178         0.375814         0.480193
 H         1.421358        -0.926795         1.513009
 H         1.768604        -1.140593        -0.235107
 H        -2.412474         1.747458        -1.505684
 H        -2.464334         2.345231         0.707397
 H        -3.074783        -0.674900         0.182589
 H        -5.498275        -0.012505        -0.387503
 H        -4.892848         1.376386        -1.394203
 H        -5.242115        -1.477826        -2.584562
 H        -4.539520         0.012954        -3.282672
