19
Iteration:  1568
 C         1.378344         0.138154        -0.387042
 C         0.043377        -0.043684        -0.021652
 C        -1.124694        -0.054330         0.339257
 C        -2.604479         0.297299         0.231226
 O        -3.422034        -0.105568         1.278966
 C        -3.310479        -0.263907        -1.033606
 C        -4.588755         0.278827        -1.571529
 C        -3.835666         0.612523        -2.816944
 O        -2.592837         0.332195        -2.192677
 H         1.740731        -0.561110        -1.214212
 H         1.464289         1.076240        -0.869657
 H         1.979883         0.087011         0.523140
 H        -2.664919         1.519091         0.231629
 H        -3.590922         0.703933         1.879997
 H        -3.219896        -1.310449        -0.787145
 H        -5.423062        -0.418240        -1.741760
 H        -4.878169         1.057952        -0.851940
 H        -3.988883        -0.162880        -3.614995
 H        -3.764202         1.544909        -3.265481
