19
Iteration:  4511charge 0 multiplicity 1
 C         1.492427        -0.280521         0.514211
 C         0.139257         0.065403         0.003464
 C        -0.935450         0.516360        -0.467816
 C        -2.314240         0.955566        -0.472073
 O        -2.505221         1.667142         0.741833
 C        -3.343237        -0.236554        -0.752406
 C        -4.835383         0.082278        -1.236022
 C        -4.505830        -0.435383        -2.586074
 O        -3.260533        -1.038444        -2.100087
 H         2.374486         0.341218         0.037309
 H         1.319852         0.008519         1.547980
 H         1.841506        -1.259085         0.400669
 H        -2.519400         1.808323        -1.160355
 H        -2.441737         0.945937         1.471687
 H        -3.308536        -0.886774         0.132671
 H        -5.547464        -0.655851        -0.758074
 H        -5.392511         1.013396        -1.065165
 H        -5.164473        -1.085776        -3.211781
 H        -4.361789         0.472154        -3.189760
