19
Iteration:  3878charge 0 multiplicity 1
 C         1.522687        -0.361007         0.249861
 C         0.056039        -0.192561         0.250546
 C        -0.979152         0.327517        -0.108990
 C        -2.336122         0.954591        -0.295551
 O        -2.886341         1.677662         0.785811
 C        -3.220991        -0.178029        -0.952364
 C        -4.703740        -0.074056        -1.154684
 C        -4.529325        -0.678572        -2.559175
 O        -3.005882        -0.289412        -2.357933
 H         2.136302        -0.770405         1.039963
 H         1.779253        -1.016626        -0.633227
 H         1.781335         0.676388        -0.066397
 H        -2.369569         1.749284        -1.137110
 H        -2.911223         1.156091         1.626238
 H        -3.038283        -1.100437        -0.430229
 H        -5.389201        -0.765760        -0.639745
 H        -5.110337         0.948911        -1.128951
 H        -4.549064        -1.764350        -2.620420
 H        -4.854635        -0.109425        -3.490675
