19
Iteration:  4590charge 0 multiplicity 1
 C         1.578174        -0.398967         0.171372
 C         0.178822         0.034790        -0.060174
 C        -0.945557         0.479532         0.042186
 C        -2.378777         0.850007        -0.425176
 O        -2.945677         1.681706         0.735664
 C        -3.408186        -0.187644        -0.754262
 C        -4.724029         0.278424        -1.342139
 C        -4.384157        -0.631898        -2.568519
 O        -3.084799        -0.887693        -2.001665
 H         2.233832         0.326375         0.736761
 H         1.743424        -1.379683         0.627683
 H         1.860896        -0.565510        -0.862950
 H        -2.347749         1.608327        -1.215339
 H        -2.102279         2.147422         1.075880
 H        -3.515626        -0.917686         0.075693
 H        -5.476407        -0.061139        -0.670652
 H        -4.638241         1.347987        -1.545033
 H        -5.010658        -1.549800        -2.713372
 H        -4.351812         0.016119        -3.482851
