19
Iteration:  2503charge 0 multiplicity 1
 C         1.655508        -0.366940         0.295447
 C         0.186275         0.015702         0.077780
 C        -1.017900         0.238415         0.001266
 C        -2.426957         0.643760        -0.056947
 O        -3.122969         0.567728         1.251827
 C        -3.150269        -0.162509        -1.198901
 C        -4.742955        -0.004492        -1.307396
 C        -4.420836         0.045066        -2.783797
 O        -3.021191         0.276807        -2.554087
 H         1.868777         0.144842         1.285893
 H         1.805839        -1.512530         0.334516
 H         2.382430         0.111262        -0.344159
 H        -2.448242         1.699259        -0.477926
 H        -2.645414         1.128205         1.831624
 H        -2.880824        -1.223695        -1.037146
 H        -5.340980        -0.885597        -0.975151
 H        -5.125736         0.946061        -0.921220
 H        -4.512054        -0.877170        -3.360679
 H        -4.888821         0.821432        -3.307375
