19
Iteration:  3398
 C         1.274966        -0.401270        -0.304984
 C        -0.104529         0.092089        -0.208208
 C        -1.206148         0.544046        -0.000672
 C        -2.622039         0.884065         0.016211
 O        -3.085772         1.003315         1.340277
 C        -3.376745        -0.169186        -0.789982
 C        -4.600246         0.254758        -1.628509
 C        -3.825813        -0.410620        -2.733368
 O        -2.635507        -0.415262        -1.939312
 H         1.885645         0.507027        -0.430677
 H         1.481309        -1.082836         0.512666
 H         1.352408        -1.052595        -1.324691
 H        -2.807724         1.873779        -0.530487
 H        -2.330134         0.878189         1.890155
 H        -3.496780        -1.195996        -0.196234
 H        -5.623600        -0.151959        -1.577637
 H        -4.551430         1.349054        -1.779873
 H        -4.241431        -1.393673        -2.943622
 H        -3.690394         0.106075        -3.687001
