19
Iteration:  2398
 C         1.375729        -0.421553         0.192762
 C         0.092397         0.165708        -0.038945
 C        -1.054520         0.494891        -0.046317
 C        -2.538447         0.645948        -0.036401
 O        -2.885860         0.454635         1.276387
 C        -3.208586        -0.238582        -1.063536
 C        -4.727571        -0.090674        -1.385881
 C        -4.226298         0.352549        -2.740452
 O        -2.842006         0.056654        -2.406455
 H         2.193010        -0.063162        -0.456715
 H         1.763579        -0.146463         1.172941
 H         1.158263        -1.537877         0.199274
 H        -2.813578         1.673946        -0.554416
 H        -3.802552         0.221832         1.345475
 H        -2.886059        -1.274691        -0.817615
 H        -5.270315        -1.032510        -1.588123
 H        -5.413679         0.510093        -0.775033
 H        -4.727243        -0.112613        -3.557403
 H        -4.183545         1.453741        -2.930856
