19
Iteration:   707
 C         1.362486        -0.387374         0.246763
 C         0.059935         0.137942        -0.011484
 C        -1.127006         0.328611         0.047941
 C        -2.570847         0.371227         0.038243
 O        -3.048271        -0.327116         1.162888
 C        -3.073011        -0.145928        -1.311819
 C        -4.569449        -0.312123        -1.560321
 C        -4.266715         0.784737        -2.616916
 O        -2.890461         0.971484        -2.243251
 H         1.381099        -0.891998         1.186798
 H         1.522329        -1.167633        -0.519742
 H         2.194121         0.454308         0.301922
 H        -2.912792         1.429290         0.003955
 H        -2.409065        -0.589346         1.828718
 H        -2.356866        -1.005838        -1.783498
 H        -4.741284        -1.307236        -1.972309
 H        -5.342553        -0.169048        -0.769162
 H        -4.366918         0.534401        -3.784552
 H        -4.826662         1.856338        -2.661827
