19
Iteration:  1090
 C         1.542711        -0.077643        -0.095416
 C         0.039867        -0.057827         0.003124
 C        -1.157439         0.191765         0.256091
 C        -2.624654         0.340396         0.138957
 O        -3.417586        -0.108706         1.190981
 C        -3.128915        -0.220856        -1.154070
 C        -4.576389         0.050267        -1.428024
 C        -4.066790         0.690137        -2.774962
 O        -2.698146         0.548232        -2.305173
 H         1.974991        -0.882402         0.363945
 H         1.737611        -0.143284        -1.144876
 H         2.006109         0.948511         0.195426
 H        -2.592548         1.398376        -0.008967
 H        -2.932538        -0.950667         1.514170
 H        -2.711052        -1.275012        -1.111402
 H        -5.209860        -0.802612        -1.548861
 H        -5.029835         0.556508        -0.590326
 H        -4.421642         0.182269        -3.701153
 H        -4.408378         1.704974        -2.950689
