19
Iteration:  4364charge 0 multiplicity 1
 C         1.559499        -0.382363         0.302976
 C         0.152306         0.070553         0.135560
 C        -1.025171         0.327652        -0.081109
 C        -2.347713         0.790987        -0.397620
 O        -2.850698         1.767809         0.479614
 C        -3.305072        -0.370467        -0.770647
 C        -4.822302        -0.058443        -1.094352
 C        -4.482958        -0.536162        -2.436512
 O        -3.027656        -0.435644        -2.265683
 H         1.440386        -1.439983         0.319427
 H         2.192050        -0.038070        -0.559345
 H         2.130369        -0.021930         1.271481
 H        -2.243039         1.162750        -1.454415
 H        -2.109897         1.950135         1.012833
 H        -3.023522        -1.221118        -0.266565
 H        -5.573875        -0.647771        -0.561467
 H        -4.984419         0.991534        -0.824687
 H        -4.747222        -1.546874        -2.603184
 H        -4.863466         0.182442        -3.143220
