19
Iteration:   864charge 0 multiplicity 1
 C         1.472865         0.063334         0.025319
 C         0.032187        -0.027955        -0.088931
 C        -1.174179         0.145566         0.066370
 C        -2.613286         0.247171         0.197787
 O        -3.211696        -0.388371         1.444507
 C        -3.237284        -0.215131        -1.198799
 C        -4.652201         0.302592        -1.496474
 C        -4.066459         0.759783        -2.862353
 O        -2.679793         0.485909        -2.362032
 H         2.015913         0.134048        -0.903388
 H         1.617219         0.920126         0.742910
 H         1.851057        -0.770413         0.477734
 H        -2.800526         1.330860         0.309424
 H        -2.726462        -1.165478         1.569555
 H        -3.163748        -1.359509        -1.196569
 H        -5.361421        -0.505137        -1.572759
 H        -5.047457         1.182829        -1.002671
 H        -4.174810         0.303551        -3.824247
 H        -4.177786         1.814991        -3.096503
