19
Iteration:  4361
 C         1.531847        -0.367776         0.299235
 C         0.153340         0.051647         0.125899
 C        -1.031069         0.353163        -0.074265
 C        -2.343192         0.799767        -0.397621
 O        -2.851193         1.750349         0.474122
 C        -3.306117        -0.360508        -0.781863
 C        -4.817356        -0.045901        -1.066651
 C        -4.474964        -0.543753        -2.445792
 O        -2.998954        -0.436548        -2.266791
 H         1.358358        -1.457175         0.268515
 H         2.224505        -0.193846        -0.557861
 H         2.031402         0.080109         1.230876
 H        -2.247397         1.103928        -1.441664
 H        -2.141087         1.941085         1.161230
 H        -3.055054        -1.346550        -0.311383
 H        -5.504957        -0.626999        -0.453062
 H        -4.953755         1.017468        -0.914360
 H        -4.823817        -1.563735        -2.558383
 H        -4.926744         0.173522        -3.135970
