19
Iteration:  4318
 C         1.497197        -0.522490         0.299333
 C         0.143705        -0.044239         0.072201
 C        -0.903609         0.594103        -0.167141
 C        -2.274002         1.085198        -0.401873
 O        -3.058726         1.641359         0.695768
 C        -3.150704        -0.150953        -0.958785
 C        -4.640337         0.086315        -1.018858
 C        -4.585449        -0.637191        -2.416617
 O        -3.024520        -0.745097        -2.352361
 H         1.437736        -1.316343         1.049130
 H         2.063568        -0.734748        -0.622952
 H         2.181044         0.372403         0.790451
 H        -2.284147         1.990982        -1.060301
 H        -3.286778         0.887474         1.258743
 H        -2.963462        -0.825289        -0.155667
 H        -5.304129        -0.323871        -0.245883
 H        -4.964809         1.094818        -1.194399
 H        -4.901191        -1.628486        -2.415781
 H        -4.776647        -0.006686        -3.288227
