19
Iteration:  2892charge 0 multiplicity 1
 C         1.391570        -0.309042        -0.224112
 C        -0.007594         0.002941        -0.078215
 C        -1.124631         0.474972         0.020175
 C        -2.591004         0.796545         0.104608
 O        -2.999107         0.719740         1.471197
 C        -3.397992        -0.167571        -0.911082
 C        -4.725777         0.231974        -1.603337
 C        -3.974267        -0.100212        -2.959737
 O        -2.664631        -0.247320        -2.143689
 H         1.624375        -1.269087         0.176262
 H         1.807165        -0.144914        -1.193990
 H         1.965183         0.383233         0.545346
 H        -2.759070         1.846134        -0.060330
 H        -3.523279        -0.057546         1.647503
 H        -3.540329        -1.118898        -0.346282
 H        -5.547585        -0.389482        -1.166641
 H        -5.131805         1.295374        -1.354363
 H        -4.299592        -1.070281        -3.327094
 H        -3.898263         0.580734        -3.795703
