19
Iteration:  4878charge 0 multiplicity 1
 C         1.537841        -0.505205         0.002331
 C         0.066475        -0.088684         0.071851
 C        -1.076709         0.341667         0.066285
 C        -2.309321         0.951633        -0.389685
 O        -2.870838         2.014521         0.517787
 C        -3.302194        -0.158309        -0.674189
 C        -4.739424         0.046538        -1.179713
 C        -4.350559        -0.644268        -2.528635
 O        -2.952030        -0.768822        -1.945242
 H         1.610241        -0.275338        -1.095204
 H         2.144605         0.056696         0.696253
 H         1.684700        -1.643024         0.147516
 H        -2.208707         1.409310        -1.393245
 H        -3.786132         1.825841         0.451117
 H        -3.290709        -0.791139         0.296204
 H        -5.607038        -0.451049        -0.718501
 H        -5.061479         1.032858        -1.297261
 H        -4.846277        -1.595147        -2.694774
 H        -4.464639        -0.036257        -3.437369
