19
Iteration:  3642
 C         1.616799        -0.197550         0.181614
 C         0.205951         0.149182         0.148677
 C        -0.946385         0.459104        -0.100216
 C        -2.368549         0.894274        -0.363439
 O        -3.018114         1.171294         0.894529
 C        -3.319016        -0.262383        -0.849142
 C        -4.765821         0.132193        -1.231181
 C        -4.343127        -0.176094        -2.670296
 O        -3.084809        -0.758713        -2.236070
 H         1.902497        -0.851436        -0.672598
 H         2.300399         0.622755         0.225879
 H         1.731180        -0.884747         1.052808
 H        -2.328296         1.783966        -1.020717
 H        -3.028375         0.384631         1.502202
 H        -3.168700        -1.138161        -0.266694
 H        -5.444829        -0.628280        -0.800298
 H        -5.200188         1.069309        -0.840430
 H        -5.011058        -0.864306        -3.233333
 H        -4.156288         0.687725        -3.350244
