19
Iteration:  4757charge 0 multiplicity 1
 C         1.202136        -0.665720         0.035497
 C        -0.081448         0.123954        -0.110998
 C        -1.103423         0.678932        -0.368835
 C        -2.512481         1.140325        -0.330433
 O        -2.745792         1.801336         0.914203
 C        -3.335330        -0.120123        -0.671314
 C        -4.648331         0.123189        -1.409166
 C        -4.117782        -0.782424        -2.521339
 O        -2.857053        -0.943860        -1.864627
 H         0.982965        -1.765034         0.004872
 H         1.894999        -0.345853        -0.748776
 H         1.793875        -0.232540         0.867032
 H        -2.604771         1.942285        -1.051153
 H        -2.348739         1.195331         1.625993
 H        -3.343131        -0.760049         0.223915
 H        -5.514494         0.001877        -0.782036
 H        -4.594702         1.146163        -1.724926
 H        -4.582724        -1.774098        -2.615219
 H        -3.963508        -0.323519        -3.541551
