19
Iteration:  3673charge 0 multiplicity 1
 C         1.534289        -0.244325         0.415482
 C         0.117366         0.157488         0.125146
 C        -0.939279         0.584635        -0.367978
 C        -2.448790         0.856352        -0.372538
 O        -2.720873         1.252474         0.971096
 C        -3.270783        -0.333089        -0.894027
 C        -4.753736        -0.011474        -1.175292
 C        -4.493876        -0.158036        -2.682014
 O        -3.112766        -0.697388        -2.330372
 H         2.056573        -0.344051        -0.483101
 H         2.082184         0.358257         1.069601
 H         1.331045        -1.155841         1.056033
 H        -2.675096         1.789119        -0.937547
 H        -2.733556         0.549444         1.617778
 H        -2.890617        -1.355421        -0.449696
 H        -5.328709        -0.890573        -0.814775
 H        -5.165115         0.961262        -0.784879
 H        -5.070745        -0.980411        -3.316051
 H        -4.296215         0.741364        -3.278085
