19
Iteration:  2660charge 0 multiplicity 1
 C         1.468921        -0.392942         0.242694
 C         0.117107         0.166315         0.053630
 C        -1.049284         0.486153        -0.039659
 C        -2.510163         0.709475        -0.157913
 O        -2.919533         0.533245         1.247924
 C        -3.237934        -0.356184        -1.023870
 C        -4.711795         0.067972        -1.296456
 C        -4.270094         0.326528        -2.774483
 O        -2.948092        -0.226365        -2.514769
 H         1.597514        -0.917917        -0.672724
 H         2.211993         0.360820         0.320852
 H         1.696165        -0.956072         1.256530
 H        -2.628994         1.721607        -0.726134
 H        -3.268884         1.318168         1.760585
 H        -2.845205        -1.316957        -0.599283
 H        -5.495633        -0.738102        -1.191616
 H        -5.064704         1.018022        -0.745656
 H        -4.818314        -0.131184        -3.596943
 H        -4.268345         1.398539        -3.059243
