19
Iteration:  3307charge 0 multiplicity 1
 C         1.496316        -0.298743        -0.140985
 C         0.145940         0.090418         0.285819
 C        -1.017154         0.416063         0.104975
 C        -2.440173         0.725561        -0.124142
 O        -3.194481         1.033405         1.166463
 C        -3.282850        -0.320832        -0.959120
 C        -4.572679         0.226963        -1.294642
 C        -4.235932        -0.117308        -2.785973
 O        -2.885146        -0.510052        -2.379591
 H         1.293804        -0.385313        -1.215326
 H         2.328655         0.390320         0.252020
 H         1.794761        -1.377474         0.092465
 H        -2.469140         1.743584        -0.638871
 H        -3.620225         1.928868         1.111444
 H        -3.144594        -1.308353        -0.322097
 H        -5.381305        -0.286536        -0.812873
 H        -4.550914         1.210851        -0.889182
 H        -4.820355        -0.917400        -3.220726
 H        -4.366400         0.720634        -3.440127
