19
Iteration:  2942charge 0 multiplicity 1
 C         1.324212        -0.426148        -0.050767
 C         0.025112         0.257492        -0.118530
 C        -1.145206         0.562818        -0.138918
 C        -2.561596         0.799677         0.001844
 O        -3.070960         0.562601         1.412101
 C        -3.181984        -0.114208        -0.891939
 C        -4.629517         0.265981        -1.467061
 C        -4.002225        -0.201719        -2.732918
 O        -2.739961        -0.240003        -2.300912
 H         1.350293        -1.332813        -0.750490
 H         2.146022         0.331849        -0.333154
 H         1.604811        -0.931665         0.843370
 H        -2.833962         1.831684        -0.230286
 H        -4.075223         0.778088         1.369690
 H        -3.278403        -1.083674        -0.374250
 H        -5.426305        -0.293134        -1.002903
 H        -4.920398         1.286399        -1.320963
 H        -4.346496        -1.209221        -3.043366
 H        -4.267458         0.502452        -3.618935
