19
Iteration:   377
 C         1.391371         0.185467        -0.284290
 C        -0.054369         0.168313        -0.184881
 C        -1.192709         0.015072         0.287141
 C        -2.702525         0.034005         0.265652
 O        -3.398874        -0.913329         1.151438
 C        -3.168274        -0.188184        -1.190298
 C        -4.581547         0.164154        -1.665923
 C        -3.834909         1.012264        -2.699880
 O        -2.583289         0.859213        -1.935070
 H         1.825252        -0.768670         0.184286
 H         1.764237         0.255807        -1.296075
 H         1.797634         1.158500         0.149389
 H        -2.873475         1.129241         0.512150
 H        -3.319513        -0.504107         2.027998
 H        -2.763507        -1.179892        -1.438030
 H        -5.066105        -0.684048        -2.080193
 H        -5.075853         0.756933        -0.951070
 H        -3.794821         0.729421        -3.756180
 H        -4.159321         2.020851        -2.599044
