19
Iteration:  3056
 C         1.647878        -0.206724         0.257420
 C         0.191369        -0.050028        -0.079108
 C        -0.989835         0.248284        -0.004290
 C        -2.410738         0.721292        -0.135642
 O        -3.123954         1.108079         1.203779
 C        -3.217097        -0.359062        -1.031234
 C        -4.761820        -0.091746        -1.297311
 C        -4.426981        -0.077273        -2.766664
 O        -2.919414        -0.085086        -2.420469
 H         2.073622         0.731852         0.204905
 H         1.802440        -0.656931         1.178244
 H         2.125382        -0.795600        -0.532772
 H        -2.326266         1.778554        -0.489414
 H        -3.813826         0.395583         1.355931
 H        -2.883255        -1.257766        -0.596771
 H        -5.439238        -0.834092        -0.814126
 H        -5.095564         0.841857        -0.823193
 H        -4.563512        -0.928836        -3.490723
 H        -4.667842         0.917031        -3.317658
