19
Iteration:  1242
 C         1.582849        -0.423742         0.338864
 C         0.111491        -0.023639         0.211835
 C        -1.042435         0.392103        -0.028923
 C        -2.503924         0.444090        -0.023471
 O        -2.996383        -0.098441         1.235574
 C        -3.172441        -0.080722        -1.260020
 C        -4.707830        -0.183266        -1.506366
 C        -4.360783         0.525289        -2.878856
 O        -3.011657         0.902720        -2.323223
 H         2.147345        -0.458140        -0.692932
 H         2.168294         0.287595         0.916528
 H         1.644977        -1.487983         0.807913
 H        -2.808467         1.474074        -0.019054
 H        -2.635371        -1.028069         1.426970
 H        -2.696572        -1.023610        -1.484452
 H        -4.991911        -1.213234        -1.513321
 H        -5.408021         0.485354        -1.021989
 H        -4.330446        -0.283669        -3.573907
 H        -4.939001         1.365658        -3.145943
