19
Iteration:    48charge 0 multiplicity 1
 C         1.507636        -0.072458         0.365456
 C         0.080202         0.042916        -0.029441
 C        -1.102904         0.095336        -0.270745
 C        -2.507887         0.053272         0.028974
 O        -2.967262        -0.998609         0.961447
 C        -3.185419        -0.199859        -1.370343
 C        -4.702126         0.066255        -1.461089
 C        -4.302066         1.401719        -2.270277
 O        -2.825184         1.006968        -2.263562
 H         1.563377        -1.057767         0.717260
 H         2.344485         0.159781        -0.308350
 H         1.577238         0.621406         1.363879
 H        -2.800381         1.079361         0.428355
 H        -3.972344        -1.033537         0.752113
 H        -2.806468        -1.154078        -1.766320
 H        -5.234375        -0.708749        -2.091573
 H        -5.167225         0.262471        -0.534219
 H        -4.798473         1.458637        -3.298265
 H        -4.553373         2.341432        -1.820704
