19
Iteration:  4647charge 0 multiplicity 1
 C         1.388051        -0.454003        -0.040163
 C         0.100956         0.085951         0.056589
 C        -1.030893         0.532232        -0.032904
 C        -2.366599         0.965640        -0.324010
 O        -3.022696         1.551108         0.727125
 C        -3.318792        -0.188315        -0.722280
 C        -4.590623         0.432070        -1.444845
 C        -4.287154        -0.688329        -2.423639
 O        -2.947770        -0.978352        -1.941833
 H         1.934446        -0.503074         0.875452
 H         1.241464        -1.431149        -0.549735
 H         2.125652         0.009294        -0.792363
 H        -2.241742         1.616955        -1.213757
 H        -2.480272         2.249528         1.032112
 H        -3.479005        -0.734400         0.223241
 H        -5.507212         0.511882        -0.828789
 H        -4.574407         1.496518        -1.763775
 H        -5.004548        -1.551095        -2.342625
 H        -4.317217        -0.290074        -3.493217
