19
Iteration:   696
 C         1.368109        -0.415629         0.270964
 C         0.068128         0.191833         0.075878
 C        -1.130574         0.292486         0.119090
 C        -2.535792         0.399663         0.017284
 O        -3.007980        -0.345432         1.216018
 C        -3.052583        -0.166558        -1.337421
 C        -4.537308        -0.284859        -1.643161
 C        -4.366046         0.825534        -2.630991
 O        -2.923907         0.950454        -2.343583
 H         1.520127        -0.691482         1.285234
 H         1.640649        -1.236453        -0.413412
 H         2.218275         0.346255        -0.018088
 H        -2.953775         1.398129         0.179347
 H        -2.218035        -0.706358         1.547409
 H        -2.594686        -1.237791        -1.598349
 H        -4.852819        -1.243774        -2.047009
 H        -5.205437         0.077205        -0.831340
 H        -4.664606         0.409648        -3.693947
 H        -4.839559         1.873353        -2.297833
