19
Iteration:  2759
 C         1.492821        -0.304199        -0.116949
 C         0.067645         0.064506         0.035209
 C        -1.121025         0.312047         0.076618
 C        -2.562152         0.614567        -0.005445
 O        -3.061897         0.805667         1.320091
 C        -3.369023        -0.338662        -0.940182
 C        -4.734761         0.172313        -1.384273
 C        -3.983222         0.338348        -2.816317
 O        -2.785305        -0.373564        -2.328669
 H         1.976076         0.679773        -0.196683
 H         2.056252        -0.915273         0.640685
 H         1.678163        -0.698518        -1.262118
 H        -2.642803         1.684852        -0.363111
 H        -3.961685         0.498858         1.289795
 H        -3.246308        -1.305696        -0.397171
 H        -5.510061        -0.657036        -1.424808
 H        -5.187460         1.173239        -0.998834
 H        -4.412393        -0.200771        -3.616277
 H        -3.762076         1.278080        -3.174325
