19
Iteration:  3995charge 0 multiplicity 1
 C         1.341166        -0.495250         0.102082
 C        -0.039446         0.069890        -0.040415
 C        -1.030324         0.689724        -0.398417
 C        -2.472140         1.107601        -0.322773
 O        -2.875456         1.299836         1.119873
 C        -3.298770        -0.121005        -0.776336
 C        -4.598189         0.222924        -1.413147
 C        -4.152193        -0.520870        -2.649064
 O        -2.989616        -0.916104        -1.980725
 H         1.413353        -1.404211        -0.571610
 H         2.222283         0.171376        -0.096563
 H         1.573635        -0.842479         1.072024
 H        -2.510102         2.062692        -0.755858
 H        -2.795245         2.318800         1.171613
 H        -3.361986        -0.853247         0.096969
 H        -5.286302        -0.416034        -0.865380
 H        -4.918220         1.265004        -1.353681
 H        -4.747341        -1.348634        -3.039369
 H        -3.839941         0.230831        -3.374231
