19
Iteration:  1277charge 0 multiplicity 1
 C         1.594000        -0.233382         0.319521
 C         0.152929        -0.142581         0.337598
 C        -0.999317         0.111699         0.103585
 C        -2.435185         0.434845        -0.052440
 O        -3.180606        -0.059005         1.129328
 C        -3.025184        -0.053126        -1.332570
 C        -4.582601        -0.093063        -1.381369
 C        -4.541137         0.582038        -2.747114
 O        -3.045547         0.789111        -2.569949
 H         2.012633         0.277095        -0.528787
 H         2.071978         0.126450         1.306288
 H         2.001594        -1.330756         0.253570
 H        -2.538098         1.468678         0.098131
 H        -2.631309        -0.766029         1.614236
 H        -2.606134        -1.038479        -1.529931
 H        -5.050790        -1.062642        -1.272433
 H        -5.058859         0.545057        -0.659572
 H        -4.659831         0.034688        -3.702718
 H        -4.985590         1.561823        -2.972807
