19
Iteration:  2270
 C         1.415782        -0.125259        -0.270565
 C         0.022439         0.059586         0.015543
 C        -1.182551         0.216580         0.284332
 C        -2.556127         0.505697         0.085216
 O        -3.235962         0.263657         1.277993
 C        -3.230997        -0.290006        -1.015608
 C        -4.591972         0.407749        -1.400116
 C        -3.962119         0.476438        -2.788085
 O        -2.706932        -0.194150        -2.322787
 H         1.745274        -1.137582        -0.108995
 H         1.570899         0.364976        -1.240356
 H         2.004017         0.495750         0.387314
 H        -2.479607         1.624629        -0.240329
 H        -4.173942         0.470829         0.985950
 H        -3.191778        -1.337567        -0.631687
 H        -5.348375        -0.306131        -1.153734
 H        -4.726999         1.386079        -0.959044
 H        -4.377687        -0.446545        -3.419735
 H        -3.994798         1.509196        -3.286836
