19
Iteration:  3801charge 0 multiplicity 1
 C         1.653449        -0.442375         0.431927
 C         0.230942         0.150044         0.323199
 C        -0.867110         0.422559        -0.154123
 C        -2.260482         0.849664        -0.435078
 O        -2.992728         1.440900         0.692417
 C        -3.147064        -0.317179        -1.026615
 C        -4.708039        -0.082581        -1.003533
 C        -4.698323        -0.331697        -2.481012
 O        -3.152953        -0.375862        -2.473953
 H         2.362468         0.162584         1.034514
 H         1.568812        -1.455955         0.941501
 H         2.189375        -0.519754        -0.542202
 H        -2.324450         1.507239        -1.312968
 H        -3.974166         1.216908         0.768076
 H        -2.822385        -1.247291        -0.601816
 H        -5.268784        -0.807450        -0.402519
 H        -4.964801         0.917850        -0.629778
 H        -4.953135        -1.297286        -2.780254
 H        -5.009777         0.288480        -3.313551
