19
Iteration:  1685charge 0 multiplicity 1
 C         1.306767        -0.246896        -0.084617
 C        -0.072744         0.105193        -0.091909
 C        -1.244589         0.505185         0.056594
 C        -2.740395         0.477822         0.296395
 O        -2.969709        -0.281840         1.490455
 C        -3.278945        -0.125829        -0.995335
 C        -4.668302         0.235213        -1.690085
 C        -3.925725         0.488310        -2.968413
 O        -2.580335         0.370240        -2.255922
 H         1.856569         0.432283        -0.711326
 H         1.857436        -0.025707         0.928716
 H         1.336137        -1.199286        -0.442490
 H        -3.245641         1.461783         0.602327
 H        -2.683191        -1.220371         1.255112
 H        -3.042785        -1.263664        -1.019236
 H        -5.341873        -0.654501        -1.785221
 H        -5.277928         1.013707        -1.216590
 H        -4.187269        -0.115118        -3.860996
 H        -4.064816         1.651863        -3.227129
