19
Iteration:  1322charge 0 multiplicity 1
 C         1.607650        -0.160101         0.382310
 C         0.205997        -0.006943         0.141544
 C        -0.994263         0.012956         0.187008
 C        -2.344484         0.395020        -0.115256
 O        -3.275939        -0.055843         0.888307
 C        -3.137317        -0.243699        -1.352088
 C        -4.617612        -0.025413        -1.304057
 C        -4.452687         0.748563        -2.622432
 O        -3.008035         0.621933        -2.447062
 H         2.125359         0.725329         0.213917
 H         1.845798        -0.555956         1.469268
 H         2.287102        -0.957197        -0.100202
 H        -2.270938         1.430820        -0.301549
 H        -2.826561        -0.044300         1.796566
 H        -2.824628        -1.266927        -1.621950
 H        -5.173833        -0.975187        -1.214385
 H        -5.046602         0.642033        -0.570430
 H        -4.964212         0.288047        -3.499439
 H        -4.914720         1.774839        -2.522598
