19
Iteration:  2921charge 0 multiplicity 1
 C         1.296754        -0.330563        -0.095294
 C        -0.042397         0.088214        -0.164999
 C        -1.153030         0.558654        -0.077044
 C        -2.608062         0.817302         0.013325
 O        -2.982595         0.621531         1.408759
 C        -3.272397        -0.222997        -0.887552
 C        -4.665975         0.253666        -1.500618
 C        -4.039755        -0.157472        -2.849574
 O        -2.619422        -0.208675        -2.169424
 H         1.290521        -1.414838        -0.318173
 H         1.984187         0.226864        -0.800672
 H         1.662727        -0.364036         0.872587
 H        -2.748121         1.955882        -0.072509
 H        -3.831856         0.207139         1.400331
 H        -3.252206        -1.147561        -0.289572
 H        -5.599079        -0.090556        -1.023294
 H        -4.601699         1.354715        -1.410940
 H        -4.353275        -1.199419        -3.101159
 H        -4.176759         0.552661        -3.804084
