19
Iteration:  3864
 C         1.561920        -0.321538         0.222634
 C         0.052582        -0.177847         0.190467
 C        -1.068298         0.223040        -0.052391
 C        -2.362829         0.891638        -0.340205
 O        -2.878271         1.728743         0.794677
 C        -3.208267        -0.197039        -0.949151
 C        -4.741338        -0.102918        -1.080883
 C        -4.434368        -0.599585        -2.513920
 O        -3.004333        -0.281016        -2.448440
 H         1.734510        -0.423304         1.326897
 H         1.941445        -1.214466        -0.323107
 H         2.075485         0.512506        -0.093165
 H        -2.083472         1.686501        -1.056743
 H        -3.502608         1.072048         1.232363
 H        -2.797290        -1.165241        -0.564457
 H        -5.170660        -0.639363        -0.216842
 H        -5.038509         0.959614        -1.112500
 H        -4.620197        -1.702800        -2.613087
 H        -5.097695        -0.047232        -3.322951
