19
Iteration:   597
 C         1.634007        -0.026151         0.508319
 C         0.210958         0.037622         0.084736
 C        -1.021644         0.022526         0.031720
 C        -2.462268         0.187509        -0.045620
 O        -3.219560        -0.508533         1.021906
 C        -3.187669        -0.249619        -1.411936
 C        -4.665423         0.033283        -1.425158
 C        -4.339748         1.063674        -2.518061
 O        -2.995669         0.749222        -2.509621
 H         2.072994         0.973853         0.662233
 H         1.798259        -0.537604         1.480530
 H         2.241306        -0.324162        -0.446510
 H        -2.859372         1.222347         0.071196
 H        -2.505405        -0.703321         1.595820
 H        -2.762287        -1.209018        -1.786865
 H        -5.342758        -0.775807        -1.608780
 H        -5.025323         0.407278        -0.449433
 H        -4.692331         0.827885        -3.605162
 H        -4.598990         2.192974        -2.282938
