19
Iteration:  2150
 C         1.355113        -0.194160        -0.212644
 C        -0.065360         0.085244        -0.091753
 C        -1.173501         0.493277         0.212835
 C        -2.628236         0.592856         0.178532
 O        -3.151687        -0.025763         1.389151
 C        -3.301110        -0.192506        -0.963710
 C        -4.587531         0.451268        -1.514946
 C        -3.930671         0.271510        -2.929335
 O        -2.654161        -0.010287        -2.322502
 H         1.901737         0.447072         0.644004
 H         1.388982        -1.264530         0.203077
 H         1.890026        -0.216626        -1.195199
 H        -2.988399         1.653273        -0.017865
 H        -2.459805        -0.015979         2.025851
 H        -3.541198        -1.258291        -0.613132
 H        -5.566191        -0.106846        -1.272950
 H        -4.635108         1.545835        -1.339602
 H        -4.147144        -0.654211        -3.448901
 H        -4.062887         1.110578        -3.660312
