19
Iteration:  4721
 C         1.283621        -0.566043        -0.038267
 C        -0.044790         0.009896         0.024904
 C        -1.115714         0.571868        -0.252918
 C        -2.426887         1.104890        -0.369588
 O        -2.712591         1.718369         0.865695
 C        -3.467636         0.036678        -0.728933
 C        -4.790395         0.111651        -1.487780
 C        -4.069088        -0.834231        -2.486943
 O        -2.842361        -0.814826        -1.799992
 H         1.670946        -1.568993         0.514304
 H         1.458373        -0.719164        -1.138010
 H         1.990635         0.126314         0.470029
 H        -2.491710         1.911914        -1.142193
 H        -2.458052         1.121660         1.635404
 H        -3.458352        -0.587459         0.222509
 H        -5.694252        -0.143164        -0.876309
 H        -4.958374         1.067245        -2.085996
 H        -4.551647        -1.797530        -2.595397
 H        -4.140127        -0.301719        -3.443823
