19
Iteration:  1321charge 0 multiplicity 1
 C         1.605641        -0.159280         0.381804
 C         0.206464        -0.012272         0.142500
 C        -0.984134         0.013075         0.191389
 C        -2.343793         0.392653        -0.108695
 O        -3.284933        -0.055348         0.880009
 C        -3.127723        -0.236941        -1.349321
 C        -4.612584        -0.020174        -1.304599
 C        -4.462759         0.747729        -2.630475
 O        -3.012518         0.619264        -2.443699
 H         2.127149         0.740542         0.205938
 H         1.830041        -0.529516         1.435337
 H         2.273125        -0.993451        -0.085524
 H        -2.272793         1.428936        -0.330296
 H        -2.804618        -0.063297         1.791832
 H        -2.783296        -1.235221        -1.607418
 H        -5.176281        -0.949739        -1.211383
 H        -5.021544         0.624286        -0.561301
 H        -4.947842         0.299882        -3.473359
 H        -4.938020         1.721089        -2.502710
