19
Iteration:  3093
 C         1.537987        -0.186428         0.314862
 C         0.162896         0.094388         0.248715
 C        -0.998496         0.323319        -0.001405
 C        -2.330084         0.662303        -0.326171
 O        -2.959874         0.991643         0.977803
 C        -3.219068        -0.327119        -1.056225
 C        -4.776811        -0.089446        -1.168809
 C        -4.510567         0.072182        -2.729744
 O        -2.982384        -0.199790        -2.433084
 H         2.112775         0.455111         1.002669
 H         1.744792        -1.236585         0.574801
 H         1.935850        -0.152630        -0.696193
 H        -2.288198         1.596359        -0.982850
 H        -2.647536         0.218733         1.575356
 H        -3.052151        -1.370170        -0.820422
 H        -5.273878        -1.037008        -0.913144
 H        -5.294234         0.790952        -0.748762
 H        -4.907569        -0.753483        -3.385854
 H        -4.733832         1.006454        -3.172208
