19
Iteration:  3731
 C         1.322682        -0.313482         0.639531
 C         0.197342         0.087135        -0.157906
 C        -0.881580         0.506988        -0.498955
 C        -2.303934         0.833869        -0.464242
 O        -2.807234         1.197488         0.874921
 C        -3.206413        -0.393648        -0.923121
 C        -4.768909        -0.109165        -0.984649
 C        -4.516065        -0.210439        -2.498585
 O        -3.043380        -0.402254        -2.344887
 H         2.257037         0.266540         0.446952
 H         0.959367        -0.033145         1.624270
 H         1.678334        -1.291700         0.566021
 H        -2.582809         1.746328        -1.013385
 H        -2.847104         2.202278         0.945443
 H        -2.656143        -1.215195        -0.490726
 H        -5.521761        -0.866798        -0.657386
 H        -5.128564         0.840718        -0.593382
 H        -4.988810        -1.092175        -2.952984
 H        -4.757331         0.670100        -3.192726
