19
Iteration:  1361charge 0 multiplicity 1
 C         1.571121        -0.161746         0.412539
 C         0.110293        -0.026889         0.229103
 C        -1.024304         0.147323        -0.177739
 C        -2.425037         0.349195        -0.041298
 O        -3.050989        -0.097702         1.248405
 C        -3.212410        -0.311432        -1.305805
 C        -4.689929        -0.044814        -1.471824
 C        -4.375757         0.862890        -2.675469
 O        -2.963414         0.523376        -2.519811
 H         1.828778         0.888754         0.866063
 H         1.847167        -0.895838         1.080258
 H         1.927039        -0.424606        -0.597993
 H        -2.793451         1.477756        -0.221018
 H        -2.602804         0.335417         1.932730
 H        -3.019811        -1.418155        -1.348729
 H        -5.293061        -0.931924        -1.616615
 H        -5.148316         0.505055        -0.620416
 H        -4.701995         0.651969        -3.743857
 H        -4.352385         1.980153        -2.501314
