19
Iteration:   534charge 0 multiplicity 1
 C         1.446970         0.183234         0.371819
 C         0.072077        -0.038425         0.073145
 C        -1.123649         0.030571        -0.054704
 C        -2.595434         0.042108        -0.013425
 O        -2.979546        -0.693638         1.117723
 C        -3.270271        -0.241167        -1.351425
 C        -4.703316         0.202264        -1.464593
 C        -4.170089         1.167643        -2.601927
 O        -2.817677         0.641636        -2.400323
 H         1.894929         0.742172        -0.418061
 H         1.639799         0.762124         1.408101
 H         2.077954        -0.813245         0.475444
 H        -2.797424         1.199141         0.223616
 H        -2.369684        -0.469504         1.844451
 H        -3.268601        -1.307821        -1.619046
 H        -5.418111        -0.627049        -1.653978
 H        -5.143566         0.855206        -0.637225
 H        -4.515391         0.849958        -3.594418
 H        -4.308826         2.224107        -2.495580
