19
Iteration:  3125
 C         1.562289        -0.229872         0.449582
 C         0.153995         0.094425         0.220612
 C        -0.955379         0.440383        -0.207806
 C        -2.353233         0.673368        -0.332126
 O        -3.067713         0.869300         1.048332
 C        -3.140391        -0.379782        -1.134548
 C        -4.625959        -0.003464        -1.085018
 C        -4.533718         0.150900        -2.642181
 O        -3.063205        -0.352222        -2.559827
 H         1.949508         0.012172         1.419345
 H         1.690984        -1.264490         0.247231
 H         2.083842         0.411420        -0.251247
 H        -2.608878         1.546937        -1.026402
 H        -2.484719         1.501256         1.445213
 H        -2.923872        -1.360852        -0.790473
 H        -5.249511        -0.818855        -0.706921
 H        -4.986068         0.901694        -0.556510
 H        -5.148776        -0.589153        -3.285136
 H        -4.612509         1.194605        -3.017979
