19
Iteration:  3522
 C         1.396314        -0.277058        -0.339632
 C        -0.018991         0.027684        -0.171930
 C        -1.113618         0.508245         0.102005
 C        -2.573311         0.946406        -0.030124
 O        -3.094551         1.017924         1.299949
 C        -3.427251        -0.226000        -0.769447
 C        -4.665136         0.294434        -1.668265
 C        -3.911719        -0.364523        -2.755490
 O        -2.736521        -0.631384        -1.956859
 H         1.782013        -0.958587         0.558851
 H         1.406940        -0.828239        -1.308120
 H         2.051896         0.664013        -0.320487
 H        -2.654310         1.957859        -0.487335
 H        -2.634664         1.545807         1.918287
 H        -3.763435        -0.973898         0.049531
 H        -5.690859        -0.075672        -1.419512
 H        -4.721168         1.418517        -1.646138
 H        -4.358509        -1.258310        -3.060659
 H        -3.447019         0.170262        -3.631290
