19
Iteration:   669
 C         1.539038        -0.371269         0.304720
 C         0.109328         0.070224         0.307862
 C        -1.033199         0.468662         0.069432
 C        -2.497330         0.383659         0.059178
 O        -3.066090        -0.404561         1.166641
 C        -3.086104        -0.115005        -1.404493
 C        -4.608502        -0.241331        -1.563704
 C        -4.410923         0.920412        -2.612587
 O        -2.993821         0.814049        -2.524129
 H         2.083284        -0.291798         1.322244
 H         1.614200        -1.433173        -0.009606
 H         2.006682         0.265704        -0.375959
 H        -3.023978         1.343229         0.311176
 H        -2.591898        -1.205199         1.130797
 H        -2.647944        -1.102095        -1.535175
 H        -4.876637        -1.215796        -2.025672
 H        -5.282562        -0.042396        -0.731145
 H        -4.880735         0.640497        -3.490241
 H        -4.681957         1.881869        -2.275687
