19
Iteration:  4068charge 0 multiplicity 1
 C         1.426248        -0.311878        -0.190300
 C        -0.015901        -0.153930        -0.083280
 C        -1.150980         0.290608        -0.051012
 C        -2.518326         0.878875        -0.225171
 O        -2.923886         1.794720         0.892798
 C        -3.421150        -0.213536        -0.676717
 C        -4.696114         0.150634        -1.377016
 C        -3.943249        -0.285728        -2.674380
 O        -2.895212        -0.949110        -1.856280
 H         1.984865        -0.028613        -1.084599
 H         1.815158         0.158879         0.708109
 H         1.659801        -1.413479         0.058422
 H        -2.462724         1.616870        -1.066744
 H        -3.260258         1.231785         1.655526
 H        -3.663079        -0.946692         0.032251
 H        -5.616008        -0.362812        -1.047440
 H        -4.800518         1.240849        -1.442319
 H        -4.360895        -1.069281        -3.356995
 H        -3.446875         0.550485        -3.167046
