19
Iteration:  4545
 C         1.486752        -0.230763         0.365945
 C         0.024613        -0.044738        -0.038679
 C        -1.076463         0.236042        -0.446926
 C        -2.400749         0.924624        -0.509779
 O        -2.715168         1.625606         0.630881
 C        -3.357148        -0.220594        -0.645978
 C        -4.757548         0.196142        -1.169846
 C        -4.352355        -0.467305        -2.496067
 O        -3.014570        -0.787153        -1.993840
 H         2.008368         0.802780         0.394320
 H         1.579390        -0.520524         1.426087
 H         1.989305        -1.021403        -0.098766
 H        -2.439689         1.468469        -1.492169
 H        -2.220745         1.121063         1.363137
 H        -3.379936        -0.878964         0.224737
 H        -5.555724        -0.396701        -0.715357
 H        -4.976995         1.240261        -1.378212
 H        -4.950255        -1.391511        -2.740418
 H        -4.271119         0.210973        -3.363471
