19
Iteration:  1459charge 0 multiplicity 1
 C         1.433280        -0.139888        -0.004639
 C         0.070523         0.244788         0.099633
 C        -1.140011         0.386890         0.136428
 C        -2.599880         0.389872         0.035667
 O        -3.143286        -0.179404         1.259339
 C        -3.267318        -0.343889        -1.116741
 C        -4.690807         0.261734        -1.459978
 C        -4.038923         0.791608        -2.675383
 O        -2.727643         0.087534        -2.465960
 H         1.657263        -0.584562         1.040224
 H         1.685587        -0.767093        -0.803885
 H         2.034216         0.776235        -0.139973
 H        -2.921963         1.322842         0.138061
 H        -3.005444        -1.099545         1.152914
 H        -3.042231        -1.436508        -1.096345
 H        -5.399041        -0.544467        -1.688038
 H        -5.185304         0.880982        -0.690287
 H        -4.398263         0.698527        -3.760417
 H        -3.781425         1.883420        -2.493431
