19
Iteration:  4232charge 0 multiplicity 1
 C         1.336160        -0.464767         0.326198
 C         0.041269         0.007680        -0.201769
 C        -1.033841         0.563425        -0.332749
 C        -2.436601         1.036807        -0.377220
 O        -2.704786         1.382082         1.051362
 C        -3.331029        -0.066255        -0.853703
 C        -4.801811         0.157963        -1.347255
 C        -4.274930        -0.731954        -2.513643
 O        -2.936630        -0.618305        -2.104750
 H         1.501302        -0.109628         1.295416
 H         1.263121        -1.534034         0.366807
 H         2.308078        -0.197737        -0.180820
 H        -2.501917         1.864727        -1.140636
 H        -2.235963         2.216346         1.116386
 H        -3.490029        -0.764235         0.039833
 H        -5.589494        -0.185696        -0.671846
 H        -5.017674         1.174998        -1.737313
 H        -4.651319        -1.775312        -2.641313
 H        -4.396547        -0.174312        -3.464953
