19
Iteration:  1160charge 0 multiplicity 1
 C         1.400253        -0.458156         0.042146
 C        -0.002916         0.067435         0.235162
 C        -1.082565         0.622527         0.143910
 C        -2.618914         0.525192         0.116873
 O        -3.094313        -0.293380         1.155543
 C        -3.085767        -0.062488        -1.182547
 C        -4.577777        -0.124371        -1.447100
 C        -4.178774         0.534353        -2.824397
 O        -2.829126         0.730247        -2.396088
 H         1.181136        -1.474432        -0.404147
 H         1.856449         0.292286        -0.703477
 H         2.007140        -0.507543         0.930858
 H        -3.168553         1.507185         0.393754
 H        -2.462578        -1.035971         1.424468
 H        -2.591387        -1.075691        -1.162337
 H        -5.195061        -1.055319        -1.248608
 H        -5.175115         0.654156        -0.922110
 H        -4.215322        -0.145238        -3.650293
 H        -4.792643         1.376211        -3.283728
