19
Iteration:  4329charge 0 multiplicity 1
 C         1.510775        -0.433834         0.295808
 C         0.125524        -0.065738         0.020928
 C        -0.973061         0.498062        -0.063687
 C        -2.318348         1.057665        -0.458070
 O        -3.009602         1.689655         0.644049
 C        -3.128436        -0.225068        -0.860638
 C        -4.640789         0.032447        -1.077814
 C        -4.540933        -0.586301        -2.396043
 O        -3.043240        -0.658782        -2.323233
 H         1.490718        -1.418482         0.836702
 H         2.081014        -0.753496        -0.590886
 H         2.069082         0.275326         1.061850
 H        -2.253484         1.822290        -1.290784
 H        -3.024348         1.118722         1.380572
 H        -2.842468        -1.105404        -0.364989
 H        -5.320288        -0.476192        -0.385388
 H        -4.843925         1.097180        -1.103434
 H        -5.045539        -1.514385        -2.422800
 H        -4.971710        -0.081120        -3.269459
