19
Iteration:  2223
 C         1.438079        -0.150111        -0.250941
 C         0.018474         0.055311        -0.070218
 C        -1.165031         0.277473         0.064214
 C        -2.650779         0.521332         0.211283
 O        -3.092249         0.124595         1.518311
 C        -3.400196        -0.191551        -0.957892
 C        -4.667161         0.432765        -1.624163
 C        -3.875442         0.336526        -2.948355
 O        -2.679362        -0.064189        -2.195113
 H         1.724748        -0.696556         0.656983
 H         1.701514        -0.644457        -1.260392
 H         2.031591         0.825358        -0.266310
 H        -2.666065         1.604839         0.098769
 H        -3.997736         0.540102         1.684363
 H        -3.523801        -1.219153        -0.542744
 H        -5.463457        -0.301817        -1.711529
 H        -4.992758         1.399227        -1.284356
 H        -4.441565        -0.348279        -3.675301
 H        -3.484346         1.239945        -3.407566
