19
Iteration:   475
 C         1.489342         0.153206         0.048379
 C         0.073284         0.302509         0.219746
 C        -1.118193         0.146951         0.093013
 C        -2.580587         0.152008         0.180200
 O        -3.279909        -0.899365         1.037150
 C        -3.228973        -0.206455        -1.236396
 C        -4.659378         0.310430        -1.487835
 C        -4.044024         1.130990        -2.586854
 O        -2.733827         0.461084        -2.372630
 H         1.778123        -0.377313        -0.984678
 H         1.968590         1.117733         0.074864
 H         1.914212        -0.522251         0.863027
 H        -2.921620         1.187761         0.598855
 H        -2.990145        -1.724588         0.684628
 H        -3.079204        -1.318628        -1.275325
 H        -5.385693        -0.398187        -1.837133
 H        -5.047367         0.933870        -0.742140
 H        -4.324480         0.725490        -3.580802
 H        -3.963645         2.255829        -2.662210
