19
Iteration:  3306
 C         1.503309        -0.303409        -0.128383
 C         0.147472         0.093010         0.275063
 C        -1.024094         0.415099         0.107503
 C        -2.438721         0.721321        -0.133092
 O        -3.190067         1.034787         1.168883
 C        -3.277125        -0.329080        -0.970418
 C        -4.578089         0.226254        -1.297206
 C        -4.232655        -0.112067        -2.772582
 O        -2.886058        -0.510069        -2.380802
 H         1.272485        -0.395109        -1.217169
 H         2.336149         0.407499         0.247309
 H         1.771436        -1.329490         0.124014
 H        -2.473277         1.752461        -0.632826
 H        -3.634148         1.944705         1.126152
 H        -3.151085        -1.286384        -0.316524
 H        -5.387705        -0.295350        -0.796844
 H        -4.540289         1.218241        -0.881766
 H        -4.853327        -0.916856        -3.259013
 H        -4.410542         0.728794        -3.435680
