19
Iteration:  2319charge 0 multiplicity 1
 C         1.531904        -0.129473        -0.193975
 C         0.113221         0.001445         0.052131
 C        -1.094433         0.166707         0.262015
 C        -2.501253         0.545902         0.067510
 O        -3.268208         0.443754         1.349087
 C        -3.255625        -0.315378        -1.036272
 C        -4.694427         0.117003        -1.399415
 C        -4.060856         0.477178        -2.793169
 O        -2.755775        -0.071337        -2.431366
 H         1.669841        -1.005719        -0.820635
 H         1.937063         0.777113        -0.422680
 H         2.016741        -0.490893         0.756195
 H        -2.646892         1.558335        -0.430167
 H        -3.811732         1.205833         1.104664
 H        -3.234523        -1.398021        -0.875572
 H        -5.408942        -0.749292        -1.506920
 H        -5.170189         0.979881        -0.866532
 H        -4.463288        -0.033354        -3.635381
 H        -4.052411         1.587869        -2.948655
