19
Iteration:  3661charge 0 multiplicity 1
 C         1.516014        -0.239594         0.334478
 C         0.149377         0.153374         0.170611
 C        -0.920446         0.631744        -0.220368
 C        -2.342610         0.858818        -0.377787
 O        -2.774744         1.211813         0.948565
 C        -3.267366        -0.311769        -0.948395
 C        -4.853469        -0.010480        -1.215728
 C        -4.411872        -0.167586        -2.672828
 O        -3.126564        -0.731842        -2.288868
 H         1.956429        -0.562114        -0.572216
 H         2.032175         0.623265         0.672737
 H         1.805959        -1.166421         0.934191
 H        -2.550072         1.697939        -1.068505
 H        -2.951960         0.353840         1.395311
 H        -3.199307        -1.131230        -0.070259
 H        -5.575250        -0.698078        -0.743343
 H        -5.145992         1.039581        -0.906158
 H        -5.103865        -0.852809        -3.352910
 H        -4.367039         0.811335        -3.163389
