19
Iteration:  4230
 C         1.332789        -0.460474         0.317635
 C         0.033679        -0.010943        -0.198258
 C        -1.046598         0.570948        -0.331645
 C        -2.423592         1.034735        -0.374099
 O        -2.702204         1.373633         1.043775
 C        -3.333278        -0.051410        -0.846031
 C        -4.799040         0.151144        -1.359903
 C        -4.266566        -0.732823        -2.524768
 O        -2.944399        -0.615827        -2.085729
 H         1.527009        -0.014871         1.288416
 H         1.323884        -1.557549         0.367139
 H         2.346638        -0.219947        -0.179060
 H        -2.463939         1.878787        -1.139840
 H        -2.276601         2.208389         1.064865
 H        -3.528052        -0.724769        -0.013973
 H        -5.600175        -0.223442        -0.700047
 H        -5.048825         1.200852        -1.630945
 H        -4.613765        -1.766788        -2.586493
 H        -4.372543        -0.150254        -3.468259
