19
Iteration:   441
 C         1.359370         0.183522        -0.130042
 C        -0.011178         0.103731         0.245176
 C        -1.201347         0.188816         0.348273
 C        -2.612470         0.077443         0.167989
 O        -3.128787        -0.886568         1.244572
 C        -3.191338        -0.229836        -1.295941
 C        -4.632695         0.311242        -1.598451
 C        -3.990085         1.140473        -2.676100
 O        -2.666530         0.577455        -2.342005
 H         1.603809        -0.682833        -0.930492
 H         1.484965         1.107629        -0.650261
 H         2.006897         0.302182         0.730404
 H        -3.133058         1.093969         0.335926
 H        -3.246449        -1.663538         0.597210
 H        -3.002765        -1.268446        -1.649463
 H        -5.416940        -0.330250        -1.965731
 H        -4.985386         0.787839        -0.731023
 H        -4.252180         0.750646        -3.681970
 H        -4.060345         2.285139        -2.676130
