19
Iteration:   240charge 0 multiplicity 1
 C         1.553781        -0.059588         0.018510
 C         0.064779         0.049195         0.030420
 C        -1.158134         0.119538         0.124954
 C        -2.641539         0.067987         0.140176
 O        -3.129698        -0.989574         1.028728
 C        -3.104748        -0.164394        -1.271099
 C        -4.688719         0.184419        -1.611402
 C        -4.169984         1.112750        -2.641241
 O        -2.838946         1.052865        -2.056678
 H         2.011841         0.968717         0.199647
 H         1.814368        -0.768459         0.885433
 H         1.992306        -0.501265        -0.914173
 H        -3.064119         1.065904         0.520290
 H        -3.126448        -0.639065         1.891663
 H        -2.543146        -0.957965        -1.797744
 H        -5.144442        -0.712115        -2.079920
 H        -5.156225         0.669408        -0.822465
 H        -4.089856         0.716995        -3.643579
 H        -4.555261         2.175667        -2.739290
