19
Iteration:   459
 C         1.501173         0.172786        -0.050081
 C         0.029065         0.242222         0.276377
 C        -1.181421         0.139984         0.322627
 C        -2.674674         0.085599         0.132057
 O        -3.141537        -0.846716         1.075128
 C        -3.261922        -0.248395        -1.249595
 C        -4.683147         0.328728        -1.496721
 C        -3.979015         1.096538        -2.701538
 O        -2.684405         0.544149        -2.388864
 H         1.630337        -0.485711        -0.836363
 H         1.923008         1.137740        -0.439812
 H         2.095361        -0.340221         0.673529
 H        -3.059683         0.988770         0.471571
 H        -3.236188        -1.815577         0.762792
 H        -3.179665        -1.340573        -1.419284
 H        -5.450744        -0.462903        -1.719604
 H        -5.211701         0.927366        -0.641727
 H        -4.396067         1.024592        -3.706575
 H        -3.985116         2.143641        -2.384784
