19
Iteration:  1610
 C         1.372971        -0.072945        -0.375506
 C        -0.036544         0.130168         0.082603
 C        -1.254409         0.297146         0.265835
 C        -2.648680         0.446522         0.344684
 O        -3.393689        -0.323838         1.320302
 C        -3.164212        -0.192903        -0.979874
 C        -4.519193         0.338068        -1.536210
 C        -3.876712         0.573242        -2.890438
 O        -2.553235         0.218631        -2.339048
 H         1.336931        -0.287810        -1.511855
 H         1.864748         0.997633        -0.481827
 H         1.907514        -0.878929         0.042818
 H        -2.910879         1.475055         0.311346
 H        -3.112978        -0.070354         2.228600
 H        -3.108913        -1.282791        -0.988169
 H        -5.338306        -0.410702        -1.588643
 H        -4.873020         1.295806        -1.109993
 H        -4.191152        -0.215028        -3.601067
 H        -3.991586         1.574450        -3.386608
