19
Iteration:  1797
 C         1.636571        -0.091069         0.195871
 C         0.229624        -0.130495         0.354235
 C        -0.956727         0.118742         0.127396
 C        -2.442302         0.392022        -0.011481
 O        -3.415451         0.012493         0.989112
 C        -3.111494        -0.196793        -1.286078
 C        -4.596101         0.076226        -1.275369
 C        -4.429725         0.603165        -2.671740
 O        -2.918901         0.452387        -2.573915
 H         2.201007         0.323535         1.049998
 H         2.031823        -1.156015         0.099122
 H         1.905333         0.368224        -0.646780
 H        -2.619175         1.570824        -0.214662
 H        -3.051305         0.442065         1.833782
 H        -2.728208        -1.232125        -1.441207
 H        -5.158190        -0.852679        -1.238562
 H        -4.795194         0.778684        -0.465391
 H        -4.692707         0.131289        -3.645539
 H        -4.802438         1.681587        -2.648058
