19
Iteration:  3800charge 0 multiplicity 1
 C         1.648929        -0.442311         0.425699
 C         0.228193         0.152970         0.333521
 C        -0.868275         0.424961        -0.156224
 C        -2.258708         0.851900        -0.442102
 O        -2.984834         1.434228         0.696478
 C        -3.144318        -0.308035        -1.028112
 C        -4.700991        -0.085092        -0.996817
 C        -4.700771        -0.336361        -2.481872
 O        -3.154215        -0.380223        -2.475425
 H         2.342010         0.200915         1.031157
 H         1.562655        -1.453836         0.946217
 H         2.176839        -0.552262        -0.501985
 H        -2.325856         1.509306        -1.336777
 H        -3.960239         1.218194         0.777844
 H        -2.859044        -1.234664        -0.584225
 H        -5.281214        -0.829099        -0.414985
 H        -4.968575         0.922297        -0.641742
 H        -4.976352        -1.282931        -2.812423
 H        -5.020533         0.328167        -3.335166
