19
Iteration:  2070charge 0 multiplicity 1
 C         1.508246        -0.134227        -0.024874
 C         0.058525        -0.054729         0.033409
 C        -1.108701         0.122292         0.226729
 C        -2.512255         0.486334         0.104667
 O        -3.214692         0.326595         1.324401
 C        -3.221921        -0.190418        -1.120565
 C        -4.669927         0.127478        -1.466836
 C        -4.123821         0.326797        -2.895802
 O        -2.769017         0.298501        -2.371983
 H         1.854723         0.655931        -0.782381
 H         2.182432         0.025574         0.911985
 H         1.620832        -1.060907        -0.562402
 H        -2.542955         1.607462        -0.257432
 H        -3.693908        -0.467508         1.440144
 H        -3.065554        -1.273861        -0.852259
 H        -5.297204        -0.629320        -1.027879
 H        -4.948051         1.043015        -0.928190
 H        -4.352841        -0.613985        -3.487712
 H        -4.269548         1.277652        -3.433725
