19
Iteration:  2119charge 0 multiplicity 1
 C         1.441724        -0.237088        -0.216728
 C         0.062056         0.199035         0.123667
 C        -1.121443         0.366193         0.105948
 C        -2.598117         0.614805         0.172292
 O        -3.307871         0.056974         1.324738
 C        -3.229502        -0.131635        -0.997592
 C        -4.611822         0.386713        -1.432681
 C        -4.018648         0.257571        -2.876857
 O        -2.669308         0.009591        -2.373851
 H         2.264622         0.525721        -0.012811
 H         1.653214        -0.948569         0.580439
 H         1.511606        -0.676833        -1.264037
 H        -2.836731         1.628950         0.114118
 H        -3.029575        -0.921358         1.368097
 H        -3.329805        -1.137623        -0.620730
 H        -5.530509        -0.235693        -1.193814
 H        -4.852304         1.459456        -1.262839
 H        -4.233833        -0.592255        -3.400492
 H        -4.162157         1.128028        -3.517545
