19
Iteration:  2108
 C         1.490225        -0.226676        -0.168662
 C         0.142381         0.186418         0.159333
 C        -1.103230         0.361384         0.127493
 C        -2.559337         0.539634         0.149073
 O        -3.324649         0.134545         1.352170
 C        -3.302077        -0.132177        -1.020096
 C        -4.600314         0.324257        -1.462548
 C        -4.063090         0.216317        -2.914809
 O        -2.707462         0.092809        -2.363305
 H         2.194820         0.621146        -0.426784
 H         1.881402        -0.963301         0.516787
 H         1.497998        -0.884089        -1.113274
 H        -2.677543         1.545225         0.297769
 H        -3.500038        -0.867896         1.196744
 H        -3.179972        -1.180949        -0.983049
 H        -5.529786        -0.314201        -1.316162
 H        -4.774089         1.309363        -0.962855
 H        -4.525504        -0.521175        -3.476065
 H        -4.017787         1.155025        -3.447074
