19
Iteration:  3698
 C         1.319281        -0.260485         0.537507
 C         0.157074         0.226366        -0.131300
 C        -0.981970         0.401967        -0.433969
 C        -2.362814         0.828411        -0.421677
 O        -2.771934         1.240513         0.927962
 C        -3.222291        -0.351046        -0.905263
 C        -4.788003        -0.073022        -1.071487
 C        -4.469824        -0.190479        -2.549226
 O        -3.013346        -0.529498        -2.335687
 H         2.240478        -0.066115        -0.048540
 H         1.409060         0.269125         1.502488
 H         1.140623        -1.225722         0.894744
 H        -2.474985         1.726099        -1.092683
 H        -2.071212         1.065150         1.545840
 H        -2.855882        -1.287240        -0.514751
 H        -5.389516        -0.849701        -0.575853
 H        -4.966705         0.951320        -0.755360
 H        -4.924869        -0.963886        -3.132802
 H        -4.447866         0.794456        -3.086450
