19
Iteration:   754
 C         1.469281        -0.295547         0.040850
 C         0.033484        -0.034876         0.067764
 C        -1.110570         0.310173         0.229921
 C        -2.537022         0.442279         0.122377
 O        -3.187409        -0.425869         1.112288
 C        -3.061147        -0.001724        -1.244829
 C        -4.551620        -0.218663        -1.528019
 C        -4.251478         0.667825        -2.734140
 O        -2.876124         0.947012        -2.285380
 H         1.682628        -1.325662         0.387857
 H         2.003690        -0.214527        -0.995268
 H         1.934371         0.348027         0.746548
 H        -2.812064         1.437538         0.448989
 H        -3.052370         0.139954         1.976047
 H        -2.663526        -1.075340        -1.384543
 H        -4.914585        -1.237003        -1.737191
 H        -5.237822         0.236025        -0.829164
 H        -4.281559         0.010995        -3.687012
 H        -4.628059         1.678474        -3.072030
