19
Iteration:  4412
 C         1.597965        -0.303505         0.385529
 C         0.170464        -0.034791         0.151160
 C        -0.936260         0.402560        -0.025317
 C        -2.244285         0.939407        -0.552451
 O        -2.819727         1.632984         0.623975
 C        -3.242480        -0.261610        -0.897596
 C        -4.793553        -0.006430        -1.046582
 C        -4.556894        -0.398767        -2.545321
 O        -3.228663        -0.801804        -2.253960
 H         2.097287        -1.121702        -0.275231
 H         1.995496         0.716004         0.309620
 H         1.796180        -0.499952         1.415727
 H        -2.185531         1.426098        -1.565528
 H        -2.506930         2.597399         0.497946
 H        -2.880676        -1.115995        -0.213053
 H        -5.349906        -0.715369        -0.371632
 H        -5.310999         0.977275        -0.897478
 H        -5.295584        -1.263383        -2.633844
 H        -4.617006         0.423316        -3.302602
