19
Iteration:  4871
 C         1.438082        -0.498568        -0.053310
 C         0.031328        -0.106537         0.133890
 C        -1.073055         0.416816         0.049868
 C        -2.327961         0.948312        -0.404193
 O        -2.841962         2.006960         0.561958
 C        -3.262274        -0.193876        -0.688140
 C        -4.753719         0.056907        -1.227169
 C        -4.339937        -0.622262        -2.497329
 O        -2.938668        -0.805288        -1.958330
 H         1.793137        -0.397846        -1.097684
 H         2.285643         0.016079         0.576951
 H         1.767170        -1.542470         0.292774
 H        -2.282042         1.346279        -1.458019
 H        -3.833761         2.003919         0.483693
 H        -3.282219        -0.807208         0.177474
 H        -5.398189        -0.528201        -0.529624
 H        -5.064268         1.146592        -1.314007
 H        -4.811573        -1.661522        -2.569507
 H        -4.315608        -0.028212        -3.449775
