19
Iteration:  1680charge 0 multiplicity 1
 C         1.293898        -0.265111        -0.085145
 C        -0.060513         0.173344        -0.078360
 C        -1.256001         0.519475         0.036026
 C        -2.740483         0.457566         0.307502
 O        -3.001738        -0.301317         1.507844
 C        -3.264833        -0.144291        -0.996707
 C        -4.685686         0.256777        -1.681865
 C        -3.884554         0.499314        -2.972082
 O        -2.573472         0.364117        -2.286815
 H         1.793507         0.375553        -0.880145
 H         1.886582        -0.007358         0.731695
 H         1.448328        -1.383483        -0.468081
 H        -3.221901         1.394460         0.740309
 H        -2.704692        -1.178560         1.310902
 H        -3.146889        -1.205189        -0.810657
 H        -5.238667        -0.671263        -1.702046
 H        -5.254084         1.091088        -1.242666
 H        -4.150507        -0.102260        -3.850228
 H        -4.112519         1.482326        -3.171869
