19
Iteration:  3259
 C         1.589304        -0.266042         0.309964
 C         0.210216         0.018651        -0.138354
 C        -0.999630         0.302754        -0.165893
 C        -2.399915         0.766561        -0.239745
 O        -3.038368         0.980446         1.124995
 C        -3.282063        -0.264581        -0.922966
 C        -4.814313         0.068016        -1.252152
 C        -4.309205        -0.003030        -2.660225
 O        -2.935234        -0.369532        -2.308840
 H         2.010832        -1.219149        -0.108820
 H         2.213989         0.628889         0.256590
 H         1.713780        -0.431993         1.329574
 H        -2.462036         1.697141        -0.892440
 H        -3.825778         1.510066         0.934410
 H        -3.021750        -1.250198        -0.474856
 H        -5.528625        -0.752671        -0.998388
 H        -5.346115         1.047188        -1.043390
 H        -4.863251        -0.704245        -3.465443
 H        -4.329140         0.993400        -3.234732
