19
Iteration:  1255charge 0 multiplicity 1
 C         1.529956        -0.352478         0.311791
 C         0.166614        -0.075794         0.301477
 C        -1.012342         0.235813         0.095818
 C        -2.475671         0.528336        -0.036409
 O        -2.989650        -0.076930         1.177228
 C        -3.171759        -0.095285        -1.332589
 C        -4.704375        -0.148835        -1.482013
 C        -4.399913         0.511662        -2.807144
 O        -3.042154         0.857882        -2.398015
 H         1.947736        -0.138247        -0.665182
 H         1.961276         0.352062         1.117485
 H         1.824242        -1.471447         0.575978
 H        -2.733851         1.557441         0.001340
 H        -2.502670        -0.872910         1.190005
 H        -2.721157        -1.058972        -1.617761
 H        -5.199810        -1.092521        -1.582470
 H        -5.131022         0.393277        -0.663172
 H        -4.242315        -0.037005        -3.786738
 H        -4.979261         1.412995        -3.114115
