19
Iteration:  3216charge 0 multiplicity 1
 C         1.372436        -0.224808         0.441167
 C         0.036951         0.071786         0.112614
 C        -1.064556         0.397102        -0.250904
 C        -2.460013         0.755904        -0.285023
 O        -2.541504         0.940777         1.063104
 C        -3.217925        -0.373033        -0.984160
 C        -4.813950        -0.021626        -1.213495
 C        -4.365387         0.092697        -2.657056
 O        -3.023465        -0.366986        -2.501402
 H         1.614569        -1.294787         0.807391
 H         2.082061         0.230221        -0.347242
 H         1.564377         0.351884         1.324921
 H        -2.570721         1.731746        -0.894409
 H        -3.512647         0.954909         1.340730
 H        -3.176135        -1.392213        -0.468190
 H        -5.554506        -0.799474        -0.934251
 H        -5.180083         0.918322        -0.702546
 H        -4.829618        -0.584030        -3.448936
 H        -4.322248         1.089149        -3.106577
