19
Iteration:  1136charge 0 multiplicity 1
 C         1.352195        -0.363201        -0.105837
 C         0.126930         0.220810         0.342225
 C        -1.114638         0.317876         0.333580
 C        -2.561394         0.500909         0.119722
 O        -3.167693        -0.242330         1.173586
 C        -3.065178        -0.125981        -1.236100
 C        -4.581936        -0.003176        -1.475285
 C        -4.215021         0.563105        -2.846135
 O        -2.815759         0.649992        -2.411884
 H         1.120161        -1.347364        -0.110564
 H         1.716248         0.072624        -1.091870
 H         2.118204        -0.098379         0.656663
 H        -2.890737         1.543009         0.285145
 H        -2.532815        -0.980601         1.450162
 H        -2.758388        -1.201907        -1.120209
 H        -5.027276        -0.983023        -1.521032
 H        -5.296585         0.533733        -0.902749
 H        -4.382702        -0.106564        -3.691473
 H        -4.711106         1.497974        -3.188807
