19
Iteration:  1363
 C         1.545479        -0.150162         0.423393
 C         0.101406        -0.029171         0.211800
 C        -1.014299         0.156411        -0.162180
 C        -2.430572         0.359926        -0.039177
 O        -3.029666        -0.112407         1.246835
 C        -3.222569        -0.303252        -1.286844
 C        -4.721749        -0.046618        -1.465538
 C        -4.343225         0.864706        -2.696110
 O        -2.955336         0.516608        -2.529110
 H         1.770387         0.857881         0.866695
 H         1.861882        -0.971424         0.995590
 H         1.928415        -0.429444        -0.634896
 H        -2.831151         1.474224        -0.291975
 H        -2.496840         0.370040         1.938380
 H        -3.015950        -1.375684        -1.270785
 H        -5.342047        -0.915468        -1.634380
 H        -5.153978         0.409498        -0.592001
 H        -4.662621         0.722670        -3.699301
 H        -4.362875         1.922506        -2.464401
