19
Iteration:   333charge 0 multiplicity 1
 C         1.252192         0.157568        -0.396034
 C        -0.020673         0.011998         0.199187
 C        -1.220881        -0.057553         0.406470
 C        -2.643762         0.137686         0.286063
 O        -3.206709        -0.877405         1.140746
 C        -3.067710        -0.142546        -1.228743
 C        -4.593049         0.065029        -1.626580
 C        -3.950065         1.070117        -2.760403
 O        -2.598948         0.985604        -2.044663
 H         2.031132        -0.188596         0.408406
 H         1.412219        -0.508978        -1.224977
 H         1.553792         1.188351        -0.769277
 H        -2.997285         1.198223         0.346258
 H        -4.113558        -1.100264         0.783918
 H        -2.752395        -1.119924        -1.637347
 H        -5.127577        -0.818557        -1.883594
 H        -5.041153         0.756599        -0.941163
 H        -3.907621         0.635001        -3.765122
 H        -4.321390         2.068752        -2.854239
