19
Iteration:  4209charge 0 multiplicity 1
 C         1.365229        -0.390671         0.231182
 C         0.006340        -0.174513        -0.091266
 C        -0.997709         0.445614        -0.418132
 C        -2.397323         1.136884        -0.365771
 O        -2.779263         1.360795         1.010838
 C        -3.374509        -0.039200        -0.741889
 C        -4.848449         0.161539        -1.383642
 C        -4.208091        -0.622618        -2.595106
 O        -2.881143        -0.649598        -1.964772
 H         1.793667         0.316518         0.860976
 H         1.490342        -1.393147         0.586769
 H         2.001139        -0.244918        -0.743780
 H        -2.421938         1.944325        -1.178241
 H        -2.690626         2.338299         1.301409
 H        -3.467968        -0.623117         0.307401
 H        -5.614858        -0.429713        -0.847259
 H        -5.288420         1.090318        -1.777387
 H        -4.753523        -1.594279        -2.673293
 H        -4.108191        -0.222993        -3.665304
