19
Iteration:   218charge 0 multiplicity 1
 C         1.538696        -0.038599         0.170325
 C         0.108595        -0.068257         0.151060
 C        -1.073018         0.105052        -0.075278
 C        -2.579969         0.058484         0.146494
 O        -2.979807        -0.989140         1.056627
 C        -3.283999        -0.060552        -1.278870
 C        -4.801682         0.075034        -1.636300
 C        -4.198573         1.167615        -2.621804
 O        -2.827112         1.080773        -2.144209
 H         1.879034         1.033580        -0.247591
 H         2.002616        -0.404856         1.165253
 H         1.821662        -0.787980        -0.660939
 H        -2.803519         1.101934         0.622925
 H        -3.578841        -0.516398         1.756624
 H        -2.876658        -0.981316        -1.808636
 H        -5.123641        -0.894023        -2.101236
 H        -5.294087         0.632770        -0.899670
 H        -4.224253         0.972743        -3.682922
 H        -4.497955         2.259054        -2.475602
