19
Iteration:  3738
 C         1.351401        -0.295430         0.645891
 C         0.173775         0.042233        -0.103875
 C        -0.869349         0.542616        -0.527315
 C        -2.320068         0.853501        -0.406855
 O        -2.796740         1.218742         0.901932
 C        -3.115090        -0.346052        -0.978466
 C        -4.759487        -0.134414        -0.961427
 C        -4.535611        -0.225014        -2.527998
 O        -3.088345        -0.431850        -2.383541
 H         2.219322         0.322563         0.541840
 H         1.102000        -0.201658         1.705057
 H         1.681815        -1.381336         0.343966
 H        -2.479250         1.682473        -1.116249
 H        -3.043285         2.190714         0.784684
 H        -2.897347        -1.333236        -0.386531
 H        -5.555498        -0.786121        -0.588404
 H        -5.164324         0.871119        -0.681711
 H        -5.060727        -1.129557        -3.060093
 H        -4.825788         0.693257        -3.007885
