19
Iteration:  4769
 C         1.170716        -0.623366         0.036168
 C         0.000571         0.126276        -0.239494
 C        -1.049785         0.666164        -0.305853
 C        -2.422803         1.122216        -0.399189
 O        -2.862140         1.764526         0.908325
 C        -3.310509        -0.158634        -0.696133
 C        -4.660565         0.178116        -1.381128
 C        -4.177094        -0.760253        -2.469497
 O        -2.788080        -0.919367        -1.794721
 H         0.966577        -1.696526         0.072213
 H         1.998438        -0.561377        -0.631014
 H         1.328652        -0.588394         1.129047
 H        -2.700782         1.777332        -1.202564
 H        -2.218038         1.369420         1.535462
 H        -3.480208        -0.736040         0.185496
 H        -5.614009        -0.186798        -1.018590
 H        -4.794070         1.144238        -1.764769
 H        -4.694528        -1.709979        -2.715801
 H        -4.074195        -0.156019        -3.411809
