19
Iteration:  3916
 C         1.423294        -0.519658         0.226824
 C         0.181911         0.176351         0.073362
 C        -1.002744         0.491108        -0.115746
 C        -2.418798         0.942441        -0.353705
 O        -2.955574         1.417683         0.892392
 C        -3.233502        -0.161855        -0.862653
 C        -4.747539         0.065961        -1.274079
 C        -4.405914        -0.630278        -2.540889
 O        -2.961032        -0.488583        -2.282005
 H         1.329330        -1.447939         0.864904
 H         1.728878        -0.672522        -0.812340
 H         2.261482         0.091975         0.721632
 H        -2.333145         1.804355        -1.017150
 H        -2.189435         2.036708         1.182693
 H        -2.978229        -1.064946        -0.246443
 H        -5.260872        -0.370542        -0.411690
 H        -5.044565         1.119491        -1.248763
 H        -4.778805        -1.686928        -2.624225
 H        -4.721823        -0.264458        -3.491062
