19
Iteration:  1995charge 0 multiplicity 1
 C         1.637774        -0.300203         0.224948
 C         0.167850         0.044868         0.180604
 C        -1.062251         0.205124         0.050608
 C        -2.506730         0.510240        -0.035537
 O        -3.197128         0.254037         1.231481
 C        -3.182915        -0.263607        -1.235623
 C        -4.699586        -0.047747        -1.340022
 C        -4.331583         0.508310        -2.785292
 O        -2.881862         0.349254        -2.510566
 H         1.810566        -0.688450        -0.848768
 H         2.345109         0.597243         0.447948
 H         1.930907        -1.012445         0.995114
 H        -2.592956         1.476686        -0.373597
 H        -2.994615         1.005561         1.861972
 H        -2.732808        -1.232694        -1.272306
 H        -5.308809        -0.965007        -1.507778
 H        -5.282247         0.518292        -0.583837
 H        -4.621695        -0.041205        -3.641466
 H        -4.654298         1.568505        -2.800867
