19
Iteration:  3761
 C         1.422103        -0.368776         0.568133
 C         0.103081         0.069934         0.146924
 C        -0.912859         0.545806        -0.311858
 C        -2.338112         0.944988        -0.523577
 O        -2.688428         1.271111         0.900229
 C        -3.130426        -0.298290        -1.049762
 C        -4.645503        -0.118856        -0.971367
 C        -4.631661        -0.262749        -2.546983
 O        -3.164109        -0.515888        -2.501899
 H         2.053710         0.500925         0.656182
 H         1.379778        -0.604794         1.601089
 H         1.993770        -1.102317        -0.119088
 H        -2.436494         1.880925        -1.101001
 H        -3.497137         1.752517         0.855419
 H        -2.660220        -1.184916        -0.446452
 H        -5.288750        -0.920151        -0.584348
 H        -5.130318         0.776344        -0.540368
 H        -5.311972        -1.180181        -2.841965
 H        -4.939636         0.623412        -3.083304
