19
Iteration:  1851
 C         1.592191        -0.228165         0.573127
 C         0.204362         0.027154         0.067194
 C        -0.972986         0.142936        -0.144163
 C        -2.475318         0.425978        -0.114266
 O        -3.052379         0.209717         1.222410
 C        -3.208568        -0.265515        -1.281561
 C        -4.759726        -0.122851        -1.437555
 C        -4.418481         0.670678        -2.677349
 O        -3.018487         0.463582        -2.524760
 H         1.752047        -0.645438         1.563338
 H         2.234661        -0.871933        -0.108314
 H         2.110472         0.650574         0.473129
 H        -2.605039         1.543807        -0.268664
 H        -2.418364        -0.460466         1.670299
 H        -2.729823        -1.233498        -1.380273
 H        -5.317782        -1.047102        -1.622760
 H        -5.101906         0.268651        -0.477241
 H        -4.614659         0.232748        -3.639547
 H        -4.811545         1.758516        -2.679380
