19
Iteration:  4237
 C         1.335070        -0.478220         0.335176
 C         0.080495         0.060463        -0.200910
 C        -1.018115         0.546209        -0.345597
 C        -2.442520         1.041317        -0.375813
 O        -2.716796         1.407859         1.053452
 C        -3.347016        -0.108001        -0.842319
 C        -4.795241         0.175964        -1.326206
 C        -4.320724        -0.726843        -2.504067
 O        -2.906415        -0.629395        -2.144091
 H         1.418220        -0.266960         1.489540
 H         1.177990        -1.597930         0.361573
 H         2.153257        -0.141452        -0.269289
 H        -2.617384         1.879678        -1.042618
 H        -2.167983         2.197202         1.279594
 H        -3.276854        -0.850978        -0.012693
 H        -5.582582        -0.102649        -0.616693
 H        -4.942845         1.094209        -1.909153
 H        -4.701885        -1.741775        -2.694396
 H        -4.472734        -0.282583        -3.494481
