19
Iteration:   682
 C         1.483475        -0.384284         0.270331
 C         0.110642         0.128033         0.215544
 C        -1.079190         0.376076         0.089837
 C        -2.594989         0.392192         0.077107
 O        -3.015423        -0.379733         1.217394
 C        -3.038768        -0.136243        -1.372022
 C        -4.590942        -0.257845        -1.612702
 C        -4.438197         0.903856        -2.656476
 O        -2.964775         0.832903        -2.450902
 H         1.776182        -0.558916         1.368660
 H         1.434822        -1.322802        -0.175117
 H         2.292378         0.220189        -0.168793
 H        -2.948152         1.465492         0.140002
 H        -2.293136        -1.092846         1.472615
 H        -2.241480        -0.892155        -1.686639
 H        -4.957828        -1.202539        -2.003345
 H        -5.155928        -0.057526        -0.676632
 H        -4.559943         0.845057        -3.737153
 H        -4.983896         1.858453        -2.407883
