19
Iteration:  2612charge 0 multiplicity 1
 C         1.578891        -0.363095         0.281504
 C         0.209367         0.094734         0.147759
 C        -0.957536         0.367487        -0.033336
 C        -2.401147         0.705605        -0.132641
 O        -3.211073         0.598000         1.035918
 C        -3.166046        -0.261617        -1.127311
 C        -4.703838         0.052376        -1.212775
 C        -4.404519         0.208455        -2.716814
 O        -2.978033        -0.044230        -2.498617
 H         1.606546        -1.502665         0.188703
 H         2.385594         0.101940        -0.440146
 H         1.940338         0.096387         1.163437
 H        -2.537824         1.827909        -0.481718
 H        -2.744065         0.063877         1.719629
 H        -3.046578        -1.297584        -0.772665
 H        -5.438256        -0.598497        -0.755888
 H        -4.724491         1.002493        -0.717799
 H        -4.848663        -0.581774        -3.296237
 H        -4.525774         1.149258        -3.164428
