19
Iteration:  1875
 C         1.537099        -0.301735         0.599236
 C         0.203219         0.088228         0.094671
 C        -0.983330         0.341789        -0.250175
 C        -2.406752         0.437865        -0.161634
 O        -2.897831         0.212635         1.228678
 C        -3.263241        -0.305960        -1.203685
 C        -4.813361        -0.177352        -1.475735
 C        -4.448167         0.663165        -2.680941
 O        -2.998738         0.446544        -2.497861
 H         1.313126        -1.086715         1.350325
 H         2.283999        -0.765426        -0.032273
 H         2.054038         0.432008         1.072063
 H        -2.736873         1.574617        -0.250267
 H        -2.903320        -0.728566         1.352773
 H        -2.877311        -1.350234        -1.253494
 H        -5.213510        -1.180246        -1.606145
 H        -5.316244         0.199543        -0.561252
 H        -4.636267         0.396564        -3.736268
 H        -4.615557         1.787095        -2.572394
