19
Iteration:  2512
 C         1.602082        -0.327321         0.296063
 C         0.203491         0.015536         0.068768
 C        -1.000659         0.201345         0.060887
 C        -2.389873         0.594433        -0.048063
 O        -3.066334         0.624096         1.166694
 C        -3.266702        -0.165431        -1.106232
 C        -4.721402        -0.046973        -1.314740
 C        -4.426864         0.041359        -2.873884
 O        -3.023306         0.318916        -2.488905
 H         1.906263        -0.077852         1.405951
 H         1.914922        -1.494820         0.221865
 H         2.260143         0.289001        -0.327003
 H        -2.367594         1.713714        -0.591697
 H        -2.492813         0.776604         1.886433
 H        -2.932714        -1.245611        -1.169812
 H        -5.504549        -0.735271        -1.033534
 H        -4.984879         0.892441        -0.867590
 H        -4.477976        -0.905043        -3.369578
 H        -4.984688         0.720343        -3.469469
