19
Iteration:  4021charge 0 multiplicity 1
 C         1.374283        -0.470646         0.027676
 C         0.055566         0.127612        -0.111219
 C        -1.115614         0.480631        -0.217332
 C        -2.501677         0.943637        -0.272715
 O        -2.818523         1.459852         1.009349
 C        -3.469478        -0.171930        -0.667918
 C        -4.825676         0.151732        -1.493595
 C        -4.051465        -0.454141        -2.645277
 O        -2.862094        -0.787137        -1.879652
 H         1.570518        -0.934296        -0.902433
 H         2.187634         0.215360         0.170653
 H         1.488032        -1.236557         0.805846
 H        -2.466771         1.733278        -0.995067
 H        -2.041928         2.069119         1.225077
 H        -3.655188        -0.978013         0.065511
 H        -5.702371        -0.436862        -1.163685
 H        -5.066710         1.202991        -1.695767
 H        -4.372208        -1.343673        -3.207532
 H        -3.732640         0.430014        -3.271052
