19
Iteration:   137
 C         1.601709        -0.071844         0.449992
 C         0.163907         0.087809         0.109085
 C        -1.041244        -0.052003         0.001496
 C        -2.455766         0.126465        -0.084397
 O        -3.123036        -0.811806         0.709158
 C        -3.148437        -0.111287        -1.441782
 C        -4.663846         0.134798        -1.246331
 C        -4.377902         1.239099        -2.244249
 O        -2.975594         0.883666        -2.427191
 H         2.215770        -0.215307        -0.374705
 H         1.998750         0.810328         0.947440
 H         1.661472        -0.929909         1.261766
 H        -2.702723         1.138506         0.332041
 H        -3.047198        -1.693376         0.215524
 H        -2.885707        -1.097178        -1.871357
 H        -5.315493        -0.638732        -1.608605
 H        -5.172758         0.443506        -0.277251
 H        -4.895253         1.287108        -3.258705
 H        -4.311634         2.262904        -1.891058
