19
Iteration:  1243charge 0 multiplicity 1
 C         1.578274        -0.421032         0.329223
 C         0.111711        -0.027182         0.220237
 C        -1.036196         0.381931        -0.016505
 C        -2.509402         0.447855        -0.043402
 O        -2.993347        -0.097860         1.234285
 C        -3.169153        -0.076038        -1.261969
 C        -4.706976        -0.182215        -1.505985
 C        -4.369869         0.527127        -2.870082
 O        -3.010888         0.899906        -2.325268
 H         2.133136        -0.420662        -0.662834
 H         2.195492         0.283045         0.955879
 H         1.683964        -1.481114         0.825933
 H        -2.803883         1.461354         0.000678
 H        -2.639307        -1.002612         1.417573
 H        -2.706826        -1.044469        -1.470581
 H        -5.007921        -1.202112        -1.505059
 H        -5.403389         0.469225        -1.017995
 H        -4.306404        -0.298555        -3.609188
 H        -4.952696         1.385377        -3.163235
