19
Iteration:   705
 C         1.353523        -0.395370         0.245147
 C         0.063830         0.152586         0.001747
 C        -1.131949         0.315302         0.067769
 C        -2.560203         0.379690         0.028114
 O        -3.030117        -0.329434         1.175048
 C        -3.075731        -0.156545        -1.318382
 C        -4.555576        -0.310574        -1.579459
 C        -4.287323         0.787509        -2.611602
 O        -2.896985         0.975915        -2.264241
 H         1.431562        -0.863574         1.255502
 H         1.544178        -1.129282        -0.463932
 H         2.182760         0.415992         0.247395
 H        -2.942655         1.447018         0.043353
 H        -2.429017        -0.626882         1.789728
 H        -2.450888        -1.043737        -1.782722
 H        -4.736301        -1.298675        -1.968074
 H        -5.348257        -0.105909        -0.809177
 H        -4.453459         0.539953        -3.709555
 H        -4.736043         1.828340        -2.643095
