19
Iteration:  1203
 C         1.333693        -0.470676         0.285711
 C         0.030726         0.133061        -0.173314
 C        -1.115858         0.396440         0.056184
 C        -2.572009         0.500863         0.127589
 O        -2.983732        -0.198141         1.245864
 C        -3.130643        -0.044389        -1.199184
 C        -4.573296        -0.130213        -1.461900
 C        -4.203002         0.399456        -2.841667
 O        -2.904202         0.909696        -2.308711
 H         1.653510        -1.182186        -0.384008
 H         2.206467         0.190540         0.639835
 H         1.103281        -0.927069         1.218623
 H        -2.981916         1.556000         0.153220
 H        -2.410435        -0.976961         1.172611
 H        -2.703969        -0.984692        -1.640834
 H        -4.893083        -1.203099        -1.450342
 H        -5.247564         0.343057        -0.756095
 H        -4.099538        -0.176571        -3.764161
 H        -4.746150         1.348940        -3.171966
