19
Iteration:  4213charge 0 multiplicity 1
 C         1.347241        -0.416179         0.237506
 C         0.027410        -0.147310        -0.124200
 C        -1.011949         0.489790        -0.387726
 C        -2.366396         1.106292        -0.352887
 O        -2.744585         1.355377         0.976999
 C        -3.409930        -0.024283        -0.745971
 C        -4.829928         0.157313        -1.391725
 C        -4.237316        -0.631236        -2.612721
 O        -2.889162        -0.631054        -1.959892
 H         1.649539         0.310026         1.070343
 H         1.492197        -1.418556         0.667247
 H         1.872653        -0.165214        -0.638316
 H        -2.428440         1.961459        -1.007683
 H        -2.668871         2.223961         1.273313
 H        -3.316703        -0.666398         0.202282
 H        -5.519139        -0.522626        -0.894688
 H        -5.289821         1.145031        -1.611685
 H        -4.741789        -1.654726        -2.593535
 H        -4.219090        -0.446801        -3.680205
