19
Iteration:  4475
 C         1.406297        -0.316074         0.529205
 C         0.251964         0.284160        -0.062377
 C        -0.890643         0.469643        -0.397358
 C        -2.304285         0.812186        -0.593485
 O        -2.745073         1.472641         0.604566
 C        -3.289331        -0.302197        -0.762369
 C        -4.766119         0.185750        -1.097990
 C        -4.515928        -0.330043        -2.456432
 O        -3.222679        -0.959747        -2.115004
 H         2.316632        -0.264566        -0.030922
 H         1.718334         0.312557         1.428127
 H         1.126400        -1.295200         0.996798
 H        -2.434285         1.492643        -1.447621
 H        -2.173516         1.465951         1.435004
 H        -3.140280        -1.052018        -0.055500
 H        -5.417207        -0.462885        -0.485850
 H        -4.874236         1.291790        -0.999863
 H        -5.128287        -1.068130        -2.932501
 H        -4.303850         0.496249        -3.144658
