19
Iteration:   637
 C         1.570704        -0.220396         0.375167
 C         0.093288         0.020561         0.282104
 C        -1.080693         0.253101         0.118057
 C        -2.528627         0.414736        -0.058420
 O        -3.132133        -0.412407         0.890911
 C        -3.052248        -0.134391        -1.424980
 C        -4.584523        -0.140916        -1.337077
 C        -4.350812         0.954560        -2.507830
 O        -3.001548         0.714497        -2.499209
 H         2.043245         0.511081         1.139566
 H         1.817593        -1.250641         0.593586
 H         1.978603         0.007338        -0.532056
 H        -2.758845         1.537485         0.104560
 H        -2.722539        -1.343972         0.661986
 H        -2.550925        -1.125061        -1.492191
 H        -5.101929        -1.059404        -1.665398
 H        -4.954098         0.179776        -0.363938
 H        -4.909213         0.783620        -3.375850
 H        -4.605226         1.925218        -2.183669
