19
Iteration:   553charge 0 multiplicity 1
 C         1.516937         0.158068         0.427588
 C         0.095648        -0.076350         0.257039
 C        -1.023552        -0.064275        -0.280091
 C        -2.566937         0.185644        -0.021719
 O        -3.001489        -0.679870         1.140071
 C        -3.264688        -0.275506        -1.302459
 C        -4.799534         0.172742        -1.527353
 C        -4.261682         1.105223        -2.590944
 O        -2.864080         0.714471        -2.389997
 H         1.867709         1.024301        -0.217496
 H         1.810377         0.468917         1.467977
 H         2.217755        -0.719427         0.053333
 H        -2.414897         1.314972        -0.009795
 H        -2.581412        -0.311887         1.879609
 H        -2.925156        -1.326753        -1.518152
 H        -5.502488        -0.538866        -1.913789
 H        -5.300989         0.608770        -0.673789
 H        -4.555461         0.947263        -3.692401
 H        -4.214974         2.249511        -2.398642
