19
Iteration:  3071charge 0 multiplicity 1
 C         1.667491        -0.194578         0.249629
 C         0.210587         0.052820         0.099236
 C        -0.997903         0.167970        -0.052457
 C        -2.411475         0.773262        -0.109970
 O        -3.043177         1.078161         1.109472
 C        -3.239574        -0.275481        -1.019990
 C        -4.778911        -0.168416        -1.233399
 C        -4.408616         0.002557        -2.766904
 O        -2.986912        -0.141152        -2.472574
 H         2.152746         0.681850         0.743430
 H         1.749277        -1.031470         0.983842
 H         2.214421        -0.654726        -0.585018
 H        -2.434615         1.581764        -0.874937
 H        -3.548367         0.344542         1.379398
 H        -2.960090        -1.339938        -0.794110
 H        -5.534223        -0.925892        -1.048180
 H        -5.171643         0.815405        -0.873773
 H        -4.867633        -0.849359        -3.341982
 H        -4.703819         0.868201        -3.247211
