19
Iteration:   995charge 0 multiplicity 1
 C         1.449947         0.166494        -0.077075
 C         0.053892         0.173800         0.130404
 C        -1.147197         0.106516        -0.031587
 C        -2.636229         0.307355         0.085485
 O        -3.242907        -0.281361         1.233430
 C        -3.357675        -0.352111        -1.110837
 C        -4.678771         0.338066        -1.509254
 C        -3.818698         0.950663        -2.601991
 O        -2.737958        -0.001481        -2.374226
 H         1.994920         0.774110         0.664439
 H         1.800259        -0.953418         0.045315
 H         1.786705         0.382732        -1.095989
 H        -2.947430         1.397830         0.109059
 H        -2.824713        -1.014957         1.723908
 H        -3.386611        -1.397831        -0.854602
 H        -5.527016        -0.217390        -1.861454
 H        -5.104726         0.969329        -0.740815
 H        -4.173095         1.099739        -3.609612
 H        -3.402428         1.933387        -2.219105
