19
Iteration:  1319
 C         1.606524        -0.163330         0.382413
 C         0.213990        -0.024844         0.144952
 C        -0.971659         0.013660         0.197708
 C        -2.345056         0.382605        -0.097475
 O        -3.299879        -0.053568         0.870132
 C        -3.106629        -0.221876        -1.341288
 C        -4.605402        -0.012824        -1.305833
 C        -4.481724         0.744268        -2.640533
 O        -3.020740         0.617314        -2.442801
 H         2.149732         0.798217         0.189242
 H         1.785689        -0.456066         1.369435
 H         2.202843        -1.032443        -0.069439
 H        -2.293057         1.465807        -0.378184
 H        -2.792330        -0.097554         1.730884
 H        -2.700170        -1.194589        -1.574902
 H        -5.191726        -0.909865        -1.217670
 H        -4.972571         0.608474        -0.514707
 H        -4.912033         0.297556        -3.466305
 H        -4.967454         1.651651        -2.471358
