19
Iteration:  3228
 C         1.432241        -0.203204         0.452724
 C         0.071516        -0.007469         0.037755
 C        -1.029693         0.374877        -0.306417
 C        -2.387777         0.728306        -0.335821
 O        -2.689488         0.976332         1.136222
 C        -3.275981        -0.344716        -0.947791
 C        -4.786709         0.014140        -1.256969
 C        -4.376646         0.070073        -2.733286
 O        -3.008632        -0.342201        -2.338980
 H         1.758752        -1.315304         0.344010
 H         2.136675         0.318810        -0.333763
 H         1.581911         0.213367         1.451018
 H        -2.627780         1.684807        -0.907199
 H        -3.670469         1.022472         1.271096
 H        -2.793884        -1.333704        -0.571268
 H        -5.385204        -0.908168        -1.146456
 H        -5.261513         0.894660        -0.788863
 H        -4.990916        -0.616960        -3.345418
 H        -4.418354         1.074591        -3.126977
