19
Iteration:   858
 C         1.493498         0.078767         0.014549
 C         0.029787        -0.030744        -0.107830
 C        -1.156841         0.109205         0.088616
 C        -2.597067         0.249091         0.223154
 O        -3.263137        -0.379646         1.415441
 C        -3.197806        -0.154202        -1.213512
 C        -4.654193         0.293451        -1.460783
 C        -4.042497         0.718467        -2.850325
 O        -2.681510         0.510589        -2.398895
 H         2.054644         0.046363        -0.994526
 H         1.665099         0.906764         0.672217
 H         1.765393        -0.871692         0.686218
 H        -3.045074         1.242806         0.425018
 H        -2.678229        -1.153925         1.654806
 H        -3.190799        -1.239631        -1.239936
 H        -5.435483        -0.491778        -1.559944
 H        -5.077101         1.094116        -0.791478
 H        -4.133231         0.178759        -3.870059
 H        -4.398784         1.778746        -3.039461
