19
Iteration:  1671charge 0 multiplicity 1
 C         1.308303        -0.267843        -0.169604
 C        -0.083776         0.272763        -0.022290
 C        -1.281667         0.532492         0.035441
 C        -2.675619         0.450429         0.327538
 O        -3.061910        -0.350618         1.510891
 C        -3.295008        -0.117632        -1.044952
 C        -4.654786         0.216750        -1.637432
 C        -3.846264         0.546046        -2.928486
 O        -2.592421         0.320426        -2.301391
 H         1.727283         0.095676        -1.074258
 H         1.854154        -0.068728         0.697975
 H         1.432554        -1.417899        -0.225224
 H        -3.086415         1.586204         0.462843
 H        -2.656261        -1.206193         1.480790
 H        -3.263544        -1.223657        -0.862691
 H        -5.389986        -0.593939        -1.596357
 H        -5.115792         1.146376        -1.278826
 H        -3.852977        -0.228130        -3.711800
 H        -3.920422         1.561907        -3.419781
