19
Iteration:  1561
 C         1.417031         0.170695        -0.410215
 C         0.016508        -0.052398        -0.000737
 C        -1.174311        -0.098707         0.270801
 C        -2.610330         0.307358         0.199646
 O        -3.456537        -0.079748         1.338849
 C        -3.225158        -0.300790        -1.064029
 C        -4.631445         0.268356        -1.518284
 C        -3.843268         0.617612        -2.830308
 O        -2.571774         0.338798        -2.173775
 H         1.900479        -0.620777        -0.967715
 H         1.473483         1.118166        -0.969343
 H         2.003350         0.092838         0.585553
 H        -2.655939         1.373067         0.065870
 H        -3.521668         0.765661         1.892055
 H        -3.364761        -1.453350        -1.007392
 H        -5.468131        -0.427947        -1.541564
 H        -4.834004         1.154182        -0.912731
 H        -3.872969        -0.064395        -3.718448
 H        -3.688920         1.713016        -3.281064
