19
Iteration:   960
 C         1.419876         0.086593         0.014263
 C        -0.014443         0.206383        -0.108439
 C        -1.172503         0.416809         0.159870
 C        -2.573588         0.322460         0.151496
 O        -3.202010        -0.438764         1.213042
 C        -3.340088        -0.437701        -1.168324
 C        -4.629769         0.430019        -1.436214
 C        -3.752696         0.995077        -2.633112
 O        -2.850866        -0.093454        -2.451166
 H         1.933452         0.967003         0.320518
 H         1.450317        -0.638807         0.947514
 H         1.938623        -0.325389        -0.989867
 H        -3.117100         1.299425         0.059861
 H        -2.490531        -0.834831         1.736632
 H        -3.291309        -1.492300        -1.082529
 H        -5.461952        -0.194276        -1.738964
 H        -4.844423         1.140155        -0.669019
 H        -4.343335         1.067758        -3.572483
 H        -3.267072         2.024553        -2.430407
