19
Iteration:  4708
 C         1.391017        -0.530664        -0.020787
 C         0.016484        -0.028106        -0.073252
 C        -1.114922         0.437511        -0.179668
 C        -2.445680         1.157744        -0.378341
 O        -2.843207         1.730385         0.871112
 C        -3.400732         0.008925        -0.728932
 C        -4.770676         0.187612        -1.475928
 C        -4.138542        -0.860970        -2.533842
 O        -2.867137        -0.760292        -1.763606
 H         1.265735        -1.463512         0.694453
 H         1.662003        -1.008187        -1.051220
 H         2.172774         0.228114         0.169478
 H        -2.376841         1.972645        -1.163237
 H        -2.291520         1.242298         1.462195
 H        -3.636430        -0.589982         0.253494
 H        -5.649933        -0.313089        -0.959631
 H        -5.010059         1.243194        -1.796263
 H        -4.428290        -1.926141        -2.570421
 H        -3.873373        -0.585967        -3.531522
