19
Iteration:  3843
 C         1.494713        -0.346381         0.343743
 C         0.146812        -0.042608        -0.050884
 C        -1.029251         0.261131         0.168205
 C        -2.274103         0.842586        -0.329510
 O        -2.893852         1.590684         0.662306
 C        -3.155269        -0.253633        -0.974084
 C        -4.697809        -0.072227        -1.042001
 C        -4.517332        -0.536238        -2.523674
 O        -3.065125        -0.234602        -2.385831
 H         1.686280        -0.008401         1.396026
 H         1.787996        -1.383642         0.022595
 H         2.141341         0.226509        -0.252034
 H        -1.923930         1.562736        -1.169601
 H        -3.763481         1.177389         0.883391
 H        -2.875831        -1.231277        -0.539824
 H        -5.337003        -0.823555        -0.480511
 H        -5.081627         0.962808        -0.949626
 H        -4.810458        -1.601860        -2.550576
 H        -5.176186        -0.018789        -3.369326
