19
Iteration:  2803charge 0 multiplicity 1
 C         1.491835        -0.247102        -0.249505
 C         0.076847         0.026815        -0.005322
 C        -1.098136         0.272297         0.159012
 C        -2.488559         0.722567         0.035131
 O        -3.379218         0.676682         1.279085
 C        -3.224828        -0.257007        -0.892344
 C        -4.582452         0.333426        -1.421365
 C        -3.963150         0.175977        -2.720370
 O        -2.791877        -0.447253        -2.314225
 H         2.152229         0.325945         0.402674
 H         1.657087        -1.316603        -0.460614
 H         1.754100         0.230628        -1.327878
 H        -2.599738         1.638925        -0.447467
 H        -3.980649         1.430633         1.260166
 H        -3.338743        -1.249578        -0.410390
 H        -5.396112        -0.408901        -1.156798
 H        -4.912702         1.365720        -0.977181
 H        -4.496049        -0.366937        -3.447608
 H        -3.730376         1.102260        -3.190289
