19
Iteration:   874charge 0 multiplicity 1
 C         1.452098         0.050511         0.054036
 C         0.003951        -0.010986        -0.045646
 C        -1.186361         0.158807         0.044656
 C        -2.635236         0.253531         0.152146
 O        -3.097590        -0.370174         1.409042
 C        -3.316199        -0.271939        -1.112289
 C        -4.670485         0.294168        -1.611624
 C        -4.027439         0.841210        -2.872833
 O        -2.695876         0.424639        -2.285685
 H         1.808943         0.423758        -0.858580
 H         1.829021         0.899255         0.704686
 H         1.971690        -0.822649         0.322005
 H        -2.811413         1.351569         0.215240
 H        -2.742535        -1.236575         1.405486
 H        -3.101455        -1.336818        -1.318905
 H        -5.510952        -0.392328        -1.597033
 H        -4.938926         1.097930        -0.931981
 H        -4.405380         0.219746        -3.623778
 H        -3.939059         1.889738        -3.051820
