19
Iteration:  2543charge 0 multiplicity 1
 C         1.624512        -0.251076         0.280866
 C         0.154528        -0.071600         0.227069
 C        -1.024386         0.087329        -0.065968
 C        -2.431687         0.584016        -0.120289
 O        -2.983120         0.773292         1.136580
 C        -3.296361        -0.184282        -1.110909
 C        -4.806310        -0.042614        -1.296101
 C        -4.366219         0.032520        -2.797479
 O        -2.972905         0.330948        -2.447731
 H         1.882689        -0.593852         1.303987
 H         2.168145        -0.931876        -0.438757
 H         2.056284         0.711038        -0.000073
 H        -2.356207         1.647241        -0.400705
 H        -2.978994        -0.158262         1.564895
 H        -2.929675        -1.211326        -1.275205
 H        -5.543489        -0.812753        -1.150844
 H        -5.120150         0.886919        -0.860143
 H        -4.365263        -1.036186        -3.119271
 H        -4.858436         0.763900        -3.523690
