19
Iteration:  2274charge 0 multiplicity 1
 C         1.421108        -0.110170        -0.263504
 C         0.044372         0.061514         0.025922
 C        -1.146481         0.204925         0.281638
 C        -2.542581         0.514872         0.053011
 O        -3.275734         0.272851         1.256440
 C        -3.263973        -0.298927        -1.007131
 C        -4.617540         0.391106        -1.378236
 C        -3.961679         0.447293        -2.777997
 O        -2.687488        -0.174216        -2.337399
 H         1.740528        -1.160311        -0.183613
 H         1.474609         0.385866        -1.197940
 H         2.166215         0.335706         0.409738
 H        -2.368107         1.584252        -0.220965
 H        -4.167686         0.495842         1.040265
 H        -3.200800        -1.293734        -0.563227
 H        -5.427255        -0.326606        -1.084049
 H        -4.752594         1.408316        -0.902430
 H        -4.413858        -0.235750        -3.448910
 H        -3.925032         1.446402        -3.216142
