19
Iteration:  3591
 C         1.511361        -0.115402        -0.069310
 C         0.049789         0.058448        -0.122362
 C        -1.097792         0.320869         0.183996
 C        -2.470111         0.661895        -0.144073
 O        -3.130085         1.205065         0.985826
 C        -3.394939        -0.375699        -0.818004
 C        -4.584867         0.324107        -1.372507
 C        -4.163245        -0.225427        -2.706751
 O        -2.860007        -0.628637        -2.098640
 H         1.923626        -1.184903        -0.305704
 H         1.808272         0.641474        -0.932332
 H         2.069101         0.025228         0.811299
 H        -2.310601         1.400689        -0.965799
 H        -2.521578         1.656267         1.559654
 H        -3.564856        -1.460823        -0.357412
 H        -5.535995        -0.075890        -0.998858
 H        -4.585120         1.393008        -1.282246
 H        -4.676584        -1.143704        -3.040213
 H        -4.064334         0.499153        -3.556012
