19
Iteration:  4009charge 0 multiplicity 1
 C         1.328410        -0.489269         0.039697
 C         0.028230         0.113215        -0.028573
 C        -1.050953         0.545257        -0.358262
 C        -2.412163         1.041420        -0.259199
 O        -2.844447         1.409757         1.098437
 C        -3.397300        -0.151994        -0.733160
 C        -4.760659         0.154389        -1.420414
 C        -4.093922        -0.435741        -2.749443
 O        -2.900906        -0.874348        -1.896961
 H         1.503812        -1.139138        -0.776253
 H         2.027573         0.340161         0.031572
 H         1.422150        -1.048795         0.940833
 H        -2.658921         1.784099        -0.967620
 H        -2.481340         2.230905         1.355529
 H        -3.435658        -0.804115         0.197404
 H        -5.662397        -0.416457        -1.139092
 H        -5.079044         1.208212        -1.412942
 H        -4.643058        -1.332114        -3.056109
 H        -3.850891         0.047816        -3.744304
