19
Iteration:  4960
 C         1.448321        -0.403891         0.354297
 C         0.114889         0.123568         0.134801
 C        -0.927390         0.548981        -0.388579
 C        -2.281667         0.992806        -0.578451
 O        -2.753153         1.551311         0.610337
 C        -3.237735        -0.178361        -0.793348
 C        -4.677107         0.267204        -1.143650
 C        -4.515837        -0.590765        -2.435185
 O        -3.217047        -1.030851        -2.019668
 H         2.260282         0.330281         0.268302
 H         1.379136        -0.619129         1.488024
 H         1.411631        -1.243999        -0.392020
 H        -2.377308         1.744474        -1.418791
 H        -2.089737         2.251312         0.892250
 H        -3.281552        -0.796856         0.053355
 H        -5.490749        -0.073924        -0.497575
 H        -4.725166         1.413373        -1.296108
 H        -5.225054        -1.495703        -2.345521
 H        -4.508498        -0.190639        -3.482868
