19
Iteration:  3215
 C         1.374072        -0.223943         0.444982
 C         0.035905         0.074276         0.116644
 C        -1.068498         0.399283        -0.253185
 C        -2.455320         0.760398        -0.282854
 O        -2.539084         0.938343         1.063308
 C        -3.228344        -0.378206        -0.991912
 C        -4.810021        -0.029572        -1.205792
 C        -4.364863         0.097656        -2.651071
 O        -3.022707        -0.370561        -2.509515
 H         1.583396        -1.264934         0.808917
 H         2.072124         0.193793        -0.303784
 H         1.601351         0.351303         1.287183
 H        -2.587874         1.733572        -0.900257
 H        -3.481520         0.958103         1.347210
 H        -3.193828        -1.355635        -0.472839
 H        -5.551482        -0.796342        -0.919060
 H        -5.159769         0.938037        -0.708791
 H        -4.828496        -0.585947        -3.475813
 H        -4.334197         1.106886        -3.129254
