19
Iteration:  3220
 C         1.386530        -0.228255         0.430286
 C         0.041526         0.055875         0.091498
 C        -1.047516         0.388212        -0.254447
 C        -2.458970         0.740834        -0.309826
 O        -2.576461         0.952586         1.080366
 C        -3.201571        -0.361035        -0.955639
 C        -4.820943         0.008495        -1.238437
 C        -4.371128         0.070222        -2.690644
 O        -3.021826        -0.355031        -2.452186
 H         1.695662        -1.273986         0.687958
 H         2.039804         0.254309        -0.388932
 H         1.463995         0.359410         1.471218
 H        -2.538787         1.663412        -0.844475
 H        -3.518304         0.958793         1.295505
 H        -3.044699        -1.400164        -0.526642
 H        -5.512866        -0.816376        -1.025520
 H        -5.229294         0.838548        -0.714164
 H        -4.881034        -0.573697        -3.328548
 H        -4.311636         1.100360        -3.034122
