19
Iteration:  3117charge 0 multiplicity 1
 C         1.578668        -0.233709         0.419564
 C         0.126005         0.105700         0.281874
 C        -0.960108         0.417022        -0.170075
 C        -2.421524         0.713743        -0.352187
 O        -3.034067         0.894276         1.022053
 C        -3.166163        -0.422243        -1.079623
 C        -4.659161        -0.027777        -1.115650
 C        -4.476795         0.124144        -2.637007
 O        -3.077739        -0.303927        -2.576770
 H         2.101707         0.165240         1.407830
 H         1.966166        -1.332521         0.178595
 H         2.052429         0.211487        -0.455208
 H        -2.492579         1.678866        -0.891712
 H        -2.310995         1.264877         1.541199
 H        -2.864695        -1.513900        -0.875187
 H        -5.332616        -0.799371        -0.755723
 H        -4.911156         0.968618        -0.648302
 H        -5.076259        -0.534245        -3.264863
 H        -4.692428         1.085774        -3.007411
