19
Iteration:  4623charge 0 multiplicity 1
 C         1.513039        -0.498545         0.001634
 C         0.224144         0.156651         0.261624
 C        -0.910791         0.440574        -0.042854
 C        -2.311972         1.031679        -0.429689
 O        -3.078679         1.534236         0.752361
 C        -3.319779        -0.083155        -0.774429
 C        -4.637023         0.333235        -1.426912
 C        -4.378383        -0.688195        -2.513064
 O        -3.108981        -0.973675        -1.937141
 H         2.458328        -0.280769         0.539386
 H         1.371603        -1.507371        -0.317469
 H         1.760829        -0.078748        -1.002222
 H        -2.099695         1.764421        -1.208899
 H        -2.585113         2.355144         0.948463
 H        -3.387488        -0.475171         0.204660
 H        -5.546280         0.125039        -0.896515
 H        -4.842969         1.397626        -1.598930
 H        -5.035555        -1.593239        -2.557358
 H        -4.336503        -0.222360        -3.529748
