19
Iteration:  4323
 C         1.517045        -0.461383         0.289523
 C         0.121834        -0.066042         0.047168
 C        -0.919396         0.532780        -0.109351
 C        -2.299399         1.093255        -0.441369
 O        -3.036967         1.670795         0.662962
 C        -3.146546        -0.180535        -0.898232
 C        -4.622701         0.038418        -1.044535
 C        -4.581272        -0.579921        -2.393435
 O        -3.017043        -0.713273        -2.350251
 H         1.429136        -1.293876         1.012458
 H         2.084809        -0.736889        -0.599162
 H         2.097019         0.146640         0.920648
 H        -2.335345         1.995661        -1.057640
 H        -3.182606         0.955041         1.366836
 H        -2.912849        -1.115357        -0.256567
 H        -5.350836        -0.370127        -0.334782
 H        -4.984031         1.076935        -1.254978
 H        -5.032856        -1.642983        -2.360019
 H        -4.869924        -0.069981        -3.329072
