19
Iteration:  2084charge 0 multiplicity 1
 C         1.518296        -0.191507        -0.153797
 C         0.099967         0.075978         0.122993
 C        -1.095848         0.212559         0.313644
 C        -2.536821         0.510308         0.075886
 O        -3.207923         0.259891         1.331927
 C        -3.254216        -0.236036        -1.069429
 C        -4.710465         0.226749        -1.459196
 C        -4.110692         0.272158        -2.886754
 O        -2.732386         0.238165        -2.380165
 H         2.063785         0.730581        -0.635773
 H         1.936808        -0.410853         0.881925
 H         1.850458        -1.094155        -0.676931
 H        -2.637768         1.548633        -0.049621
 H        -3.734065        -0.556803         1.116243
 H        -3.158887        -1.304235        -1.091949
 H        -5.627505        -0.430009        -1.491382
 H        -5.043423         1.227270        -1.105905
 H        -4.289518        -0.540706        -3.492226
 H        -4.323459         1.186373        -3.455977
