19
Iteration:  2030
 C         1.528412        -0.114838         0.132135
 C         0.061111        -0.236051         0.003060
 C        -1.082716         0.080084         0.101305
 C        -2.502616         0.507193        -0.003559
 O        -3.257655         0.399943         1.220060
 C        -3.164993        -0.227295        -1.113145
 C        -4.671348        -0.014134        -1.331654
 C        -4.206244         0.429695        -2.834595
 O        -2.814818         0.383001        -2.357614
 H         1.927536         0.173389        -0.914288
 H         1.845495         0.761192         0.719193
 H         2.006777        -1.064559         0.313514
 H        -2.497427         1.514163        -0.256908
 H        -2.616766         0.073739         1.941367
 H        -2.868489        -1.271050        -1.243501
 H        -5.229006        -0.988497        -1.460422
 H        -5.240872         0.814619        -0.866610
 H        -4.228245        -0.278913        -3.693307
 H        -4.576981         1.409164        -3.244418
