19
Iteration:  4683charge 0 multiplicity 1
 C         1.412934        -0.518752         0.018043
 C         0.076890        -0.007336        -0.266824
 C        -1.025678         0.426385        -0.131689
 C        -2.421832         1.015165        -0.197196
 O        -3.019400         1.768888         0.839564
 C        -3.382121        -0.061286        -0.694212
 C        -4.702483         0.317864        -1.468998
 C        -4.205927        -0.806099        -2.448162
 O        -2.850214        -0.860280        -1.891563
 H         1.459658        -1.042307         0.924601
 H         1.635023        -1.352429        -0.766557
 H         2.122639         0.353917        -0.071472
 H        -2.361466         1.734327        -1.055151
 H        -2.397133         1.920523         1.518858
 H        -3.697028        -0.819222         0.125732
 H        -5.695014         0.050319        -1.050037
 H        -4.590221         1.249455        -2.001958
 H        -4.573163        -1.860149        -2.524113
 H        -4.101068        -0.386271        -3.464273
