19
Iteration:    74charge 0 multiplicity 1
 C         1.547091        -0.051947         0.409351
 C         0.100953        -0.062061         0.168752
 C        -1.071068         0.043573        -0.090135
 C        -2.505031         0.081301        -0.092332
 O        -2.819352        -0.929546         0.806065
 C        -3.228205        -0.213796        -1.445097
 C        -4.771885         0.110159        -1.481366
 C        -4.325921         1.421563        -2.291388
 O        -2.984456         0.917241        -2.294610
 H         1.951457        -1.148107         0.309454
 H         2.156063         0.696541        -0.171727
 H         1.624285         0.251263         1.494799
 H        -2.876098         1.092296         0.229430
 H        -3.422852        -0.532364         1.484641
 H        -2.870104        -1.173477        -1.886216
 H        -5.279497        -0.666569        -2.025643
 H        -5.212576         0.419072        -0.452434
 H        -4.794729         1.744252        -3.212199
 H        -4.448581         2.309824        -1.576150
