19
Iteration:  4972charge 0 multiplicity 1
 C         1.397474        -0.397443         0.451668
 C         0.157929         0.188727         0.068939
 C        -0.905837         0.554656        -0.470102
 C        -2.232195         0.979105        -0.663772
 O        -2.710366         1.443578         0.657510
 C        -3.275071        -0.175614        -0.811190
 C        -4.738714         0.294136        -1.181692
 C        -4.549947        -0.620936        -2.398713
 O        -3.219873        -0.973611        -1.946574
 H         2.247805         0.311517         0.425622
 H         1.423027        -0.957688         1.456572
 H         1.787646        -1.224249        -0.169877
 H        -2.318362         1.750336        -1.486784
 H        -2.398891         2.398390         0.752637
 H        -2.983759        -0.707754         0.055600
 H        -5.525235        -0.035396        -0.466532
 H        -4.932523         1.390748        -1.436826
 H        -5.228201        -1.525693        -2.578626
 H        -4.520675        -0.031308        -3.347825
