19
Iteration:  1323
 C         1.611040        -0.163658         0.384435
 C         0.207037        -0.002329         0.140831
 C        -1.005753         0.012839         0.181764
 C        -2.346293         0.394953        -0.122079
 O        -3.266250        -0.056060         0.898499
 C        -3.145865        -0.250023        -1.354043
 C        -4.624036        -0.031474        -1.303326
 C        -4.443394         0.749334        -2.613721
 O        -3.003401         0.625487        -2.452195
 H         2.134479         0.729332         0.221503
 H         1.854343        -0.571268         1.491073
 H         2.286077        -0.913163        -0.119566
 H        -2.275395         1.451420        -0.272512
 H        -2.855121        -0.024159         1.786613
 H        -2.865556        -1.300057        -1.633178
 H        -5.173250        -0.998843        -1.222112
 H        -5.069558         0.661603        -0.572409
 H        -4.972096         0.275265        -3.527204
 H        -4.881160         1.826402        -2.545573
