19
Iteration:  2656charge 0 multiplicity 1
 C         1.436365        -0.404868         0.248796
 C         0.121886         0.192790         0.085537
 C        -1.037929         0.481935        -0.024182
 C        -2.474370         0.700652        -0.113581
 O        -2.925336         0.531685         1.185126
 C        -3.241461        -0.382015        -1.036481
 C        -4.717750         0.079428        -1.250416
 C        -4.302627         0.332433        -2.811710
 O        -2.943065        -0.217349        -2.515491
 H         1.604404        -1.046659        -0.688575
 H         2.217666         0.483220         0.202488
 H         1.638877        -0.834202         1.182686
 H        -2.532198         1.684040        -0.637920
 H        -3.145366         1.300821         1.723612
 H        -2.822805        -1.312800        -0.674999
 H        -5.493256        -0.670657        -1.140430
 H        -5.066107         0.983513        -0.759045
 H        -4.745939        -0.252076        -3.614855
 H        -4.257550         1.386330        -2.958689
