19
Iteration:  3264charge 0 multiplicity 1
 C         1.561639        -0.257759         0.277650
 C         0.190253         0.041315        -0.152193
 C        -0.996206         0.304450        -0.073397
 C        -2.386234         0.771440        -0.263226
 O        -3.055398         0.971087         1.125586
 C        -3.261213        -0.276056        -0.945166
 C        -4.771722         0.072744        -1.253094
 C        -4.328513         0.014011        -2.685342
 O        -2.949334        -0.379035        -2.291717
 H         1.955427        -1.136302        -0.268883
 H         2.269163         0.641697         0.200374
 H         1.750625        -0.655274         1.370888
 H        -2.384691         1.667454        -0.903540
 H        -3.778950         1.579812         0.887422
 H        -3.233141        -1.301966        -0.395241
 H        -5.466783        -0.702533        -0.969641
 H        -5.257800         1.005943        -1.056755
 H        -4.702868        -0.753325        -3.279842
 H        -4.257130         0.902562        -3.260815
