19
Iteration:  4042
 C         1.428822        -0.423560        -0.079322
 C         0.048390         0.104014        -0.182975
 C        -1.150230         0.253245        -0.081102
 C        -2.536201         0.875807        -0.262025
 O        -2.870403         1.646226         0.915149
 C        -3.538320        -0.209123        -0.608285
 C        -4.779388         0.123571        -1.431905
 C        -3.970134        -0.357509        -2.751835
 O        -2.856121        -0.737321        -1.788095
 H         1.918763        -0.692957        -0.976954
 H         2.039149         0.220534         0.534892
 H         1.405966        -1.311342         0.515721
 H        -2.439546         1.503228        -1.099815
 H        -2.122415         1.520406         1.532539
 H        -3.771752        -1.041307         0.118283
 H        -5.659771        -0.527544        -1.345879
 H        -5.061131         1.179815        -1.381165
 H        -4.292414        -1.315598        -3.074339
 H        -3.520702         0.302205        -3.546398
