19
Iteration:  3728
 C         1.322667        -0.305335         0.641446
 C         0.204602         0.111726        -0.188750
 C        -0.895897         0.488934        -0.479392
 C        -2.313519         0.835271        -0.489547
 O        -2.806669         1.184965         0.865831
 C        -3.248018        -0.393153        -0.885377
 C        -4.766247        -0.103695        -1.005885
 C        -4.500951        -0.190807        -2.488181
 O        -3.036665        -0.391569        -2.336272
 H         2.180001         0.264578         0.384382
 H         0.969243        -0.041129         1.597335
 H         1.640148        -1.416250         0.705363
 H        -2.605399         1.706205        -1.066499
 H        -2.738580         2.160421         1.011162
 H        -2.617328        -1.273401        -0.495533
 H        -5.381377        -0.949322        -0.653257
 H        -5.023853         0.876150        -0.543364
 H        -4.971702        -1.185288        -2.949781
 H        -4.672044         0.617458        -3.207737
