19
Iteration:  2330charge 0 multiplicity 1
 C         1.506902        -0.161691        -0.139177
 C         0.041452        -0.017904         0.026614
 C        -1.169721         0.192667         0.241596
 C        -2.543394         0.537742         0.042147
 O        -3.142838         0.482948         1.310788
 C        -3.208498        -0.337981        -1.067846
 C        -4.687965         0.064385        -1.468097
 C        -4.082339         0.482706        -2.754047
 O        -2.784304        -0.043200        -2.399035
 H         1.918302        -0.725014        -0.977473
 H         2.054281         0.696466        -0.260656
 H         1.798218        -0.562184         0.850278
 H        -2.459864         1.655360        -0.229030
 H        -3.830274         1.179145         1.618583
 H        -2.953679        -1.357386        -0.746263
 H        -5.393442        -0.801381        -1.347958
 H        -5.153390         0.920560        -0.916504
 H        -4.375093        -0.000794        -3.663660
 H        -4.136727         1.591027        -2.953161
