19
Iteration:   789
 C         1.510424        -0.176549        -0.133972
 C         0.170771         0.022523         0.375375
 C        -1.045304         0.182561         0.306226
 C        -2.519706         0.326948         0.170563
 O        -3.370644        -0.448093         1.118765
 C        -3.093868        -0.045962        -1.274873
 C        -4.555034         0.035700        -1.468080
 C        -4.258709         0.582840        -2.830075
 O        -2.864731         0.865089        -2.389886
 H         1.602137        -1.275847        -0.512643
 H         1.757594         0.637935        -0.883341
 H         2.176359        -0.067205         0.660521
 H        -2.651457         1.409211         0.207176
 H        -3.126876        -0.175199         2.097695
 H        -2.520285        -0.912772        -1.554217
 H        -5.114234        -0.869992        -1.255801
 H        -4.910047         0.856819        -0.817396
 H        -4.361102        -0.193825        -3.631174
 H        -4.687172         1.544288        -3.179379
