19
Iteration:  3263charge 0 multiplicity 1
 C         1.564167        -0.259257         0.284251
 C         0.194310         0.037086        -0.152210
 C        -0.996657         0.303302        -0.090156
 C        -2.387936         0.770459        -0.260538
 O        -3.052398         0.971592         1.127892
 C        -3.264114        -0.270978        -0.944312
 C        -4.779825         0.072609        -1.253281
 C        -4.326396         0.012664        -2.677888
 O        -2.946129        -0.377271        -2.292843
 H         1.967020        -1.176523        -0.234650
 H         2.276906         0.668618         0.222196
 H         1.765703        -0.619961         1.361832
 H        -2.400409         1.682218        -0.919453
 H        -3.807123         1.582738         0.886893
 H        -3.189134        -1.328637        -0.399395
 H        -5.482360        -0.710280        -0.977298
 H        -5.280259         1.003051        -1.068519
 H        -4.732399        -0.740094        -3.320456
 H        -4.269500         0.901681        -3.253500
