19
Iteration:  1422
 C         1.417129        -0.200714         0.271813
 C         0.069735         0.246774        -0.024807
 C        -1.101468         0.453993        -0.196018
 C        -2.590397         0.399801         0.070767
 O        -3.081348        -0.221706         1.279596
 C        -3.190294        -0.307196        -1.201772
 C        -4.713462         0.153157        -1.446417
 C        -4.099093         0.837871        -2.614112
 O        -2.792611         0.168301        -2.478250
 H         1.639189        -0.060085         1.310641
 H         1.478253        -1.390015         0.156161
 H         2.232271         0.330418        -0.178485
 H        -3.087021         1.418140        -0.075665
 H        -2.610630        -1.007121         1.449970
 H        -3.181463        -1.381956        -1.001054
 H        -5.367125        -0.656299        -1.813902
 H        -5.111353         0.734174        -0.581699
 H        -4.627909         0.776436        -3.556387
 H        -3.974041         1.844097        -2.323878
