19
Iteration:  2133charge 0 multiplicity 1
 C         1.371288        -0.244544        -0.128166
 C        -0.027117         0.186798        -0.032174
 C        -1.157564         0.424324         0.193038
 C        -2.578625         0.598837         0.162684
 O        -3.231662         0.018789         1.298712
 C        -3.229591        -0.138501        -1.021602
 C        -4.621509         0.448571        -1.520069
 C        -4.001543         0.232569        -2.864018
 O        -2.656550        -0.019571        -2.285876
 H         1.964331         0.574409         0.024042
 H         1.683165        -1.205918         0.173849
 H         1.535838        -0.361314        -1.239639
 H        -2.824323         1.662464         0.250585
 H        -2.565827        -0.560735         1.669396
 H        -3.120741        -1.199917        -0.888029
 H        -5.454171        -0.150423        -1.186568
 H        -4.745026         1.433641        -1.052405
 H        -4.587529        -0.598848        -3.381608
 H        -3.830630         1.080348        -3.509704
