19
Iteration:  2103charge 0 multiplicity 1
 C         1.510246        -0.238367        -0.158624
 C         0.118404         0.185754         0.148783
 C        -1.057332         0.338178         0.151291
 C        -2.549065         0.516723         0.162516
 O        -3.316895         0.144719         1.350612
 C        -3.249965        -0.164234        -1.036882
 C        -4.674050         0.322039        -1.497989
 C        -4.075310         0.249764        -2.903594
 O        -2.722130         0.119435        -2.354889
 H         2.139724         0.638862        -0.452514
 H         2.086220        -0.879827         0.605542
 H         1.375003        -0.834043        -1.036420
 H        -2.677776         1.708297         0.099283
 H        -3.678123        -0.740505         1.288150
 H        -3.143531        -1.311060        -0.918791
 H        -5.433982        -0.397904        -1.228115
 H        -4.765143         1.300055        -1.040283
 H        -4.552590        -0.622073        -3.533912
 H        -4.089424         1.159837        -3.554735
