19
Iteration:  1857charge 0 multiplicity 1
 C         1.576988        -0.260642         0.597924
 C         0.277435         0.032722         0.066340
 C        -0.952214         0.179144        -0.214663
 C        -2.525430         0.463053        -0.069088
 O        -3.021227         0.213485         1.237081
 C        -3.214706        -0.286875        -1.307202
 C        -4.750877        -0.149008        -1.443191
 C        -4.432960         0.697088        -2.698093
 O        -3.003365         0.451760        -2.489936
 H         1.673655        -0.741210         1.596513
 H         2.074865        -0.823462        -0.190469
 H         2.213297         0.805016         0.667780
 H        -2.609536         1.513263        -0.335921
 H        -2.566797        -0.519972         1.608001
 H        -2.800913        -1.326756        -1.438000
 H        -5.397709        -0.999651        -1.736335
 H        -5.339155         0.333925        -0.621634
 H        -4.865531         0.114842        -3.591464
 H        -4.818348         1.666636        -2.577206
