19
Iteration:  4938
 C         1.522169        -0.447461         0.249966
 C         0.101168         0.063136         0.085394
 C        -0.974562         0.513779        -0.214531
 C        -2.335498         0.878954        -0.536312
 O        -2.859544         1.835412         0.583424
 C        -3.248613        -0.290993        -0.754235
 C        -4.686779         0.259930        -1.149269
 C        -4.515906        -0.587172        -2.423388
 O        -3.115912        -0.973317        -2.035305
 H         2.269816         0.245455        -0.172392
 H         1.816910        -0.465897         1.412886
 H         1.540164        -1.443328        -0.305012
 H        -2.222741         1.524918        -1.438202
 H        -2.253011         1.674526         1.314330
 H        -3.122501        -1.079001        -0.065934
 H        -5.595120         0.034972        -0.597525
 H        -4.726762         1.337130        -1.544331
 H        -5.091595        -1.557210        -2.592753
 H        -4.445981         0.026165        -3.350447
