19
Iteration:  2872charge 0 multiplicity 1
 C         1.440327        -0.301511        -0.251520
 C         0.049674         0.095934        -0.018560
 C        -1.175479         0.267307        -0.026789
 C        -2.571179         0.799658         0.110118
 O        -3.158771         0.763265         1.473687
 C        -3.369337        -0.127328        -0.864410
 C        -4.694694         0.242176        -1.598567
 C        -3.908850        -0.082847        -2.860397
 O        -2.732371        -0.275563        -2.198524
 H         1.854435        -1.117272         0.412469
 H         1.472152        -0.442889        -1.322091
 H         2.176584         0.595338        -0.025281
 H        -2.484539         1.801349        -0.065691
 H        -2.851649        -0.180171         1.711383
 H        -3.396228        -1.141651        -0.385372
 H        -5.544298        -0.408999        -1.413729
 H        -5.121200         1.231586        -1.711409
 H        -4.358926        -0.850647        -3.497931
 H        -3.824965         0.757583        -3.433792
