19
Iteration:  1546
 C         1.415897         0.177884        -0.302527
 C        -0.006492        -0.042722        -0.030313
 C        -1.209433        -0.113283         0.145926
 C        -2.663722         0.174945         0.216784
 O        -3.459907         0.000148         1.395537
 C        -3.264390        -0.319258        -1.107190
 C        -4.550101         0.276281        -1.487730
 C        -3.844614         0.635242        -2.791145
 O        -2.515010         0.337260        -2.230703
 H         1.803827        -0.713889        -0.910456
 H         1.446317         0.827613        -1.155315
 H         2.031014         0.575946         0.496843
 H        -2.677067         1.434088         0.019441
 H        -3.274041         0.675389         1.992121
 H        -2.898204        -1.345931        -1.164226
 H        -5.416229        -0.405062        -1.528261
 H        -4.841760         1.176385        -0.915844
 H        -4.144888         0.003201        -3.675338
 H        -4.049063         1.645024        -2.973365
