19
Iteration:  3088
 C         1.562010        -0.214458         0.316629
 C         0.169328         0.104026         0.196064
 C        -0.989975         0.283585        -0.006494
 C        -2.364873         0.640131        -0.302928
 O        -2.968295         1.023852         1.007960
 C        -3.238395        -0.304564        -1.036872
 C        -4.782015        -0.079018        -1.207619
 C        -4.481564         0.024762        -2.719277
 O        -2.999948        -0.173516        -2.449661
 H         2.186908         0.549474         0.823752
 H         1.836447        -1.186919         0.773238
 H         1.925022        -0.114057        -0.740603
 H        -2.206911         1.655223        -0.722537
 H        -2.983578         0.246000         1.538311
 H        -3.034521        -1.367973        -0.704502
 H        -5.072632        -1.119102        -0.953294
 H        -5.301900         0.747751        -0.739361
 H        -4.789513        -0.800919        -3.384440
 H        -4.653993         1.108819        -3.175593
