19
Iteration:  2188charge 0 multiplicity 1
 C         1.356000        -0.190274        -0.230020
 C        -0.043500         0.146272        -0.042079
 C        -1.235630         0.294606        -0.080707
 C        -2.653086         0.550675         0.192839
 O        -3.023265        -0.003019         1.488046
 C        -3.453389        -0.148870        -0.913538
 C        -4.684135         0.448292        -1.693093
 C        -3.824371         0.273094        -2.910893
 O        -2.607322         0.022340        -2.140460
 H         1.883926        -0.268924         0.758664
 H         1.479794        -1.298215        -0.451548
 H         1.930249         0.588548        -0.919280
 H        -2.798713         1.599581         0.211967
 H        -3.274885         0.763452         2.102137
 H        -3.413549        -1.231236        -0.727850
 H        -5.472304        -0.233638        -1.380368
 H        -5.012877         1.448019        -1.365390
 H        -4.209275        -0.532294        -3.559534
 H        -3.649905         1.119179        -3.555489
