19
Iteration:  3221charge 0 multiplicity 1
 C         1.395125        -0.226911         0.430339
 C         0.044600         0.049251         0.085063
 C        -1.044775         0.386292        -0.258884
 C        -2.452463         0.736580        -0.317332
 O        -2.590762         0.956088         1.088146
 C        -3.204384        -0.360611        -0.949838
 C        -4.819567         0.013456        -1.244114
 C        -4.371693         0.066251        -2.697985
 O        -3.020198        -0.352540        -2.435665
 H         1.705078        -1.240335         0.633360
 H         2.010818         0.233900        -0.359765
 H         1.451102         0.343171         1.473475
 H        -2.543790         1.654279        -0.841090
 H        -3.510359         0.964116         1.285244
 H        -3.001523        -1.365442        -0.556237
 H        -5.491772        -0.825309        -1.053719
 H        -5.242514         0.841299        -0.716010
 H        -4.919446        -0.594389        -3.325377
 H        -4.318985         1.123821        -3.028973
