19
Iteration:  1612
 C         1.372937        -0.075146        -0.372726
 C        -0.051170         0.144813         0.086117
 C        -1.259259         0.314746         0.257633
 C        -2.636078         0.437174         0.342893
 O        -3.387746        -0.328246         1.315603
 C        -3.145483        -0.217218        -0.983258
 C        -4.522058         0.355401        -1.538460
 C        -3.898597         0.577965        -2.885727
 O        -2.551138         0.224518        -2.335389
 H         1.308474        -0.255853        -1.512547
 H         1.871981         0.880434        -0.469663
 H         1.880641        -0.946083         0.061225
 H        -2.987394         1.538747         0.243167
 H        -3.060009        -0.119418         2.271111
 H        -3.141042        -1.299528        -0.904890
 H        -5.325556        -0.402949        -1.572504
 H        -4.916744         1.295815        -1.133993
 H        -4.113442        -0.230358        -3.610160
 H        -3.908127         1.493327        -3.385550
