19
Iteration:  1470
 C         1.550660        -0.101385        -0.055968
 C         0.061872         0.181843         0.129549
 C        -1.162855         0.353840         0.080562
 C        -2.615177         0.444898         0.134090
 O        -3.256653        -0.195388         1.292779
 C        -3.282272        -0.307435        -1.086414
 C        -4.660340         0.184349        -1.479897
 C        -3.977445         0.851204        -2.720336
 O        -2.743249         0.084430        -2.474043
 H         2.081243        -0.745190         0.759402
 H         1.705739        -0.599888        -0.951146
 H         2.104140         0.845419        -0.056378
 H        -2.913466         1.390290         0.055045
 H        -2.927873        -1.142452         1.381364
 H        -3.239827        -1.393622        -0.835503
 H        -5.382819        -0.618128        -1.668276
 H        -5.095081         0.996586        -0.890948
 H        -4.497106         0.528607        -3.684046
 H        -3.902881         1.978150        -2.693549
