19
Iteration:  1925charge 0 multiplicity 1
 C         1.345056        -0.404147         0.525732
 C         0.062853         0.074029         0.101937
 C        -0.960379         0.570836        -0.192240
 C        -2.438421         0.615922        -0.096963
 O        -3.031271         0.062072         1.114711
 C        -3.057961        -0.257798        -1.304333
 C        -4.606400        -0.082297        -1.247069
 C        -4.400961         0.636963        -2.583958
 O        -3.006399         0.252102        -2.626095
 H         1.552178        -1.479410         0.542981
 H         2.099614         0.049576        -0.226651
 H         1.781971         0.083428         1.553628
 H        -2.884100         1.544459        -0.093140
 H        -2.281646        -0.416595         1.555174
 H        -2.635319        -1.290478        -1.299491
 H        -5.133131        -1.039844        -1.223641
 H        -5.148052         0.513240        -0.488716
 H        -4.935515         0.235800        -3.434218
 H        -4.234085         1.698939        -2.631134
