19
Iteration:  4578charge 0 multiplicity 1
 C         1.544707        -0.356801         0.195745
 C         0.113452         0.015383        -0.096615
 C        -1.050233         0.351398        -0.114953
 C        -2.380556         0.916839        -0.340500
 O        -2.891645         1.702202         0.690934
 C        -3.357533        -0.279319        -0.678963
 C        -4.690354         0.254802        -1.299807
 C        -4.383760        -0.538055        -2.528507
 O        -3.030430        -0.861854        -2.038528
 H         2.084097         0.569940         0.622308
 H         1.472545        -1.126946         0.941309
 H         2.203547        -0.643942        -0.608311
 H        -2.333291         1.390990        -1.336515
 H        -2.172051         2.008828         1.230543
 H        -3.394358        -1.051834         0.062924
 H        -5.656419         0.102352        -0.831586
 H        -4.773831         1.312125        -1.500040
 H        -5.005704        -1.468155        -2.582393
 H        -4.313164        -0.141512        -3.548508
