19
Iteration:  4180charge 0 multiplicity 1
 C         1.380968        -0.405675         0.056303
 C         0.047871         0.002926        -0.067918
 C        -1.096051         0.401931        -0.235857
 C        -2.457974         0.974356        -0.267278
 O        -2.879594         1.486767         0.981252
 C        -3.375774        -0.174709        -0.706843
 C        -4.709250         0.243116        -1.386079
 C        -4.151771        -0.496793        -2.700249
 O        -2.903492        -0.809499        -1.933219
 H         2.014346         0.467442         0.357083
 H         1.549524        -1.263713         0.711471
 H         1.808760        -0.716730        -0.886346
 H        -2.431913         1.679835        -1.066722
 H        -2.367716         2.299175         1.138254
 H        -3.600040        -0.799707         0.116687
 H        -5.586353        -0.242805        -0.950448
 H        -4.939866         1.305323        -1.528605
 H        -4.773975        -1.391366        -2.834927
 H        -3.888417         0.047353        -3.592051
