19
Iteration:  4192charge 0 multiplicity 1
 C         1.467949        -0.429841         0.108898
 C        -0.046030        -0.086501        -0.044083
 C        -1.090124         0.417659        -0.394029
 C        -2.417280         0.988670        -0.316937
 O        -2.858998         1.447926         1.020656
 C        -3.428483        -0.032190        -0.791969
 C        -4.759714         0.184940        -1.407413
 C        -4.162416        -0.564404        -2.578485
 O        -2.888294        -0.756958        -1.920711
 H         1.868157         0.490665         0.699644
 H         1.689703        -1.264595         0.821052
 H         1.866694        -0.482894        -0.855388
 H        -2.491510         1.918516        -0.816774
 H        -2.499356         2.395067         1.076666
 H        -3.277684        -0.743442        -0.057985
 H        -5.576392        -0.235354        -0.828044
 H        -4.874544         1.264566        -1.526558
 H        -4.450144        -1.502652        -3.073220
 H        -4.155556         0.123703        -3.415596
