19
Iteration:  2536
 C         1.639765        -0.249811         0.267949
 C         0.144506        -0.047172         0.194296
 C        -1.058169         0.099351        -0.001439
 C        -2.392694         0.584175        -0.177728
 O        -2.998447         0.739112         1.147502
 C        -3.212252        -0.198399        -1.149648
 C        -4.861949        -0.008902        -1.328881
 C        -4.327263         0.012996        -2.766181
 O        -3.021455         0.348866        -2.399463
 H         1.916690        -0.482003         1.377254
 H         2.093657        -1.207880        -0.278209
 H         2.174313         0.655490        -0.013161
 H        -2.391085         1.632159        -0.777171
 H        -2.728277        -0.062764         1.674213
 H        -3.032018        -1.321651        -1.176875
 H        -5.598658        -0.823365        -1.136795
 H        -5.286809         0.932917        -0.945265
 H        -4.301662        -0.952753        -3.262765
 H        -4.805165         0.700667        -3.361337
