19
Iteration:  3058
 C         1.655146        -0.203911         0.255467
 C         0.196853        -0.043812        -0.059021
 C        -0.987610         0.230654        -0.014324
 C        -2.416030         0.737877        -0.136561
 O        -3.118782         1.113836         1.203708
 C        -3.216301        -0.363964        -1.026504
 C        -4.778397        -0.105544        -1.287595
 C        -4.446153        -0.055342        -2.778190
 O        -2.914452        -0.094257        -2.423867
 H         2.147822         0.707595         0.289407
 H         1.745084        -0.668351         1.161022
 H         2.167713        -0.758181        -0.553222
 H        -2.304634         1.807791        -0.487231
 H        -3.803213         0.360343         1.318531
 H        -2.839199        -1.287834        -0.659146
 H        -5.458605        -0.849014        -0.820854
 H        -5.077148         0.870782        -0.862179
 H        -4.556214        -0.942780        -3.490679
 H        -4.669425         0.871855        -3.286553
