19
Iteration:    20charge 0 multiplicity 1
 C         1.522147        -0.044063         0.259690
 C         0.074983         0.091756        -0.168860
 C        -1.124191         0.029469         0.082724
 C        -2.575953         0.042892         0.018366
 O        -3.042107        -0.984198         0.954537
 C        -3.170549        -0.156092        -1.399043
 C        -4.689814         0.096472        -1.470819
 C        -4.253420         1.343029        -2.336083
 O        -2.784952         1.065094        -2.175304
 H         1.525308        -0.891115         1.038488
 H         2.217768        -0.442041        -0.509948
 H         1.869312         0.817442         0.662008
 H        -2.905830         0.998496         0.386586
 H        -3.370100        -1.726667         0.401278
 H        -2.800483        -1.095385        -1.854026
 H        -5.244458        -0.620780        -2.069093
 H        -5.341284         0.130384        -0.510093
 H        -4.588302         1.074819        -3.317136
 H        -4.609599         2.378382        -1.999003
