19
Iteration:  4521charge 0 multiplicity 1
 C         1.438587        -0.226230         0.477082
 C         0.090001        -0.020414        -0.014675
 C        -0.924790         0.485754        -0.450623
 C        -2.287693         0.916165        -0.529280
 O        -2.528090         1.659999         0.750003
 C        -3.395662        -0.232187        -0.789131
 C        -4.906007         0.100345        -1.144392
 C        -4.421830        -0.438580        -2.593458
 O        -3.190871        -0.942765        -2.032423
 H         2.142178         0.610094         0.104676
 H         1.620250        -0.188743         1.572475
 H         1.705134        -1.204424         0.174277
 H        -2.358388         1.540425        -1.437851
 H        -2.464106         0.913299         1.412451
 H        -3.409290        -0.893266         0.035525
 H        -5.474064        -0.685339        -0.578323
 H        -5.251651         1.103195        -1.317976
 H        -5.027765        -1.242574        -3.067460
 H        -4.174643         0.324687        -3.327217
