19
Iteration:  4777charge 0 multiplicity 1
 C         1.178569        -0.660177         0.096058
 C         0.062400         0.127374        -0.340150
 C        -1.049140         0.696652        -0.276123
 C        -2.396154         1.089108        -0.389662
 O        -2.929217         1.706083         0.848003
 C        -3.338006        -0.138534        -0.680329
 C        -4.695552         0.205810        -1.352231
 C        -4.125121        -0.750236        -2.494784
 O        -2.808103        -0.895606        -1.768567
 H         0.819693        -1.743624        -0.299629
 H         2.153468        -0.528347        -0.487803
 H         1.385860        -0.517916         1.205913
 H        -2.545429         1.830254        -1.223196
 H        -2.235951         1.620559         1.564492
 H        -3.264949        -0.742641         0.309149
 H        -5.534383        -0.281480        -0.846841
 H        -4.908073         1.264882        -1.681865
 H        -4.737170        -1.640960        -2.530301
 H        -4.062973        -0.286448        -3.503235
