19
Iteration:  1413
 C         1.441159        -0.183141         0.339179
 C         0.061173         0.169757        -0.020854
 C        -1.123073         0.462465        -0.224328
 C        -2.501173         0.404586         0.041778
 O        -3.072247        -0.218073         1.250387
 C        -3.252598        -0.266302        -1.202548
 C        -4.748127         0.059594        -1.448869
 C        -4.089850         0.880156        -2.587219
 O        -2.826443         0.194122        -2.475346
 H         1.602815         0.130953         1.397555
 H         1.518581        -1.323762         0.168776
 H         2.161386         0.133326        -0.349480
 H        -2.831496         1.407718         0.201872
 H        -2.447345        -0.808484         1.608877
 H        -2.994721        -1.362951        -1.127336
 H        -5.402521        -0.807736        -1.640465
 H        -5.342941         0.766038        -0.796048
 H        -4.462437         0.697229        -3.660509
 H        -3.963297         1.982030        -2.449056
