19
Iteration:  4122charge 0 multiplicity 1
 C         1.519712        -0.459371        -0.204508
 C         0.191444         0.119884         0.063609
 C        -1.040836         0.405638         0.093842
 C        -2.447322         0.924445        -0.308660
 O        -3.184452         1.605161         0.721691
 C        -3.353597        -0.280855        -0.675600
 C        -4.633408         0.325688        -1.337444
 C        -3.984122        -0.231405        -2.612531
 O        -3.062048        -1.071567        -1.846574
 H         2.077618         0.334362        -0.589443
 H         2.163431        -0.741311         0.575461
 H         1.368599        -1.290572        -0.955569
 H        -2.407513         1.607071        -1.123847
 H        -3.430714         0.861541         1.329739
 H        -3.532502        -1.001819         0.142130
 H        -5.675753        -0.001647        -1.167982
 H        -4.600704         1.420698        -1.252102
 H        -4.685148        -0.879452        -3.208272
 H        -3.451747         0.271771        -3.433114
