19
Iteration:  3670
 C         1.529954        -0.246043         0.391205
 C         0.113054         0.151982         0.144246
 C        -0.918571         0.602836        -0.329484
 C        -2.448011         0.865180        -0.372040
 O        -2.722090         1.231217         0.961823
 C        -3.254524        -0.319876        -0.903078
 C        -4.786841        -0.011523        -1.207872
 C        -4.490514        -0.158331        -2.684710
 O        -3.113737        -0.711699        -2.308274
 H         2.100286        -0.391530        -0.549197
 H         2.157077         0.484148         1.013057
 H         1.386284        -1.162024         1.041786
 H        -2.623607         1.735894        -1.021636
 H        -2.824518         0.568191         1.654634
 H        -2.940144        -1.341437        -0.472736
 H        -5.379030        -0.804065        -0.724364
 H        -5.163832         0.929293        -0.759238
 H        -5.070997        -0.905978        -3.323616
 H        -4.289370         0.735918        -3.257706
