19
Iteration:  1682charge 0 multiplicity 1
 C         1.297965        -0.255802        -0.080429
 C        -0.052049         0.143356        -0.086511
 C        -1.258874         0.516282         0.043640
 C        -2.741913         0.459419         0.300229
 O        -2.989765        -0.289315         1.503002
 C        -3.267376        -0.138155        -0.991393
 C        -4.681031         0.253932        -1.687675
 C        -3.900050         0.488977        -2.974747
 O        -2.573706         0.367989        -2.275378
 H         1.801478         0.388493        -0.779863
 H         1.863847        -0.003721         0.755993
 H         1.396558        -1.333910        -0.475985
 H        -3.268661         1.459857         0.739585
 H        -2.684291        -1.236488         1.268722
 H        -3.099629        -1.241522        -0.885795
 H        -5.265237        -0.665511        -1.739182
 H        -5.272516         1.059058        -1.228167
 H        -4.184729        -0.091323        -3.855622
 H        -4.112570         1.554741        -3.172610
