19
Iteration:  4732charge 0 multiplicity 1
 C         1.212865        -0.552253        -0.049535
 C        -0.087477         0.004698         0.098294
 C        -1.057613         0.638450        -0.361712
 C        -2.427286         1.101494        -0.368991
 O        -2.668605         1.785632         0.933347
 C        -3.395941        -0.083938        -0.715131
 C        -4.768267         0.104809        -1.528015
 C        -4.154797        -0.795525        -2.504323
 O        -2.826903        -0.846159        -1.806265
 H         1.113480        -1.713347         0.361391
 H         1.658978        -0.519090        -1.097230
 H         1.901007         0.154760         0.471544
 H        -2.434754         1.925150        -1.128971
 H        -2.576866         0.995239         1.568112
 H        -3.667241        -0.704678         0.246036
 H        -5.615256        -0.285653        -0.913647
 H        -4.946350         1.209872        -1.799941
 H        -4.530264        -1.812356        -2.511113
 H        -3.911360        -0.508862        -3.538862
