19
Iteration:   728
 C         1.463455        -0.409697         0.171476
 C         0.059718         0.029933        -0.040081
 C        -1.103421         0.438046        -0.074941
 C        -2.594436         0.479055         0.076899
 O        -3.225139        -0.385896         1.149202
 C        -3.038815        -0.176764        -1.225204
 C        -4.468935        -0.291122        -1.612962
 C        -4.255768         0.718427        -2.650397
 O        -2.907111         0.986390        -2.134917
 H         1.559184        -1.111399         0.977177
 H         2.013395        -0.782811        -0.659220
 H         2.012363         0.552067         0.584533
 H        -3.017431         1.495503         0.242336
 H        -2.688330        -0.348786         2.028333
 H        -2.467879        -1.180854        -1.447866
 H        -4.944094        -1.244154        -1.809750
 H        -5.094141         0.233066        -0.851774
 H        -4.354320         0.363447        -3.732842
 H        -4.741738         1.735033        -2.767341
