19
Iteration:  3166
 C         1.502156        -0.264246         0.623277
 C         0.294823         0.170016        -0.080092
 C        -0.889412         0.474677        -0.260094
 C        -2.391519         0.749580        -0.425563
 O        -2.892092         0.753813         0.983723
 C        -3.254049        -0.312497        -1.031699
 C        -4.792118        -0.024283        -1.117424
 C        -4.487084         0.133288        -2.609757
 O        -3.074329        -0.377735        -2.433928
 H         1.097741        -0.726678         1.482551
 H         2.078150        -0.955212         0.051859
 H         2.329512         0.492866         0.893774
 H        -2.433473         1.747016        -0.821077
 H        -3.529199         1.497508         1.070101
 H        -3.053977        -1.243246        -0.480847
 H        -5.391128        -0.902177        -0.824017
 H        -5.079410         0.791247        -0.488463
 H        -5.067535        -0.317911        -3.430981
 H        -4.364584         1.237710        -2.924503
