19
Iteration:  3620
 C         1.621860        -0.194332         0.092907
 C         0.198371         0.168562        -0.030372
 C        -1.016516         0.315129        -0.044857
 C        -2.403860         0.764090        -0.224518
 O        -3.229435         1.248391         0.941315
 C        -3.315140        -0.343936        -0.832681
 C        -4.620274         0.240349        -1.240375
 C        -4.281190        -0.177886        -2.658476
 O        -2.987867        -0.741932        -2.225953
 H         1.859400        -0.988522        -0.651947
 H         2.173191         0.657276        -0.247152
 H         1.921137        -0.489973         1.138369
 H        -2.264105         1.645159        -0.878345
 H        -2.939607         0.961630         1.812197
 H        -3.318583        -1.231544        -0.316809
 H        -5.523459        -0.191744        -0.778506
 H        -4.791207         1.330456        -1.138363
 H        -4.824688        -0.947283        -3.226200
 H        -4.112265         0.647823        -3.371842
