19
Iteration:  3854
 C         1.492758        -0.311688         0.271357
 C         0.111098        -0.111734         0.053109
 C        -1.070063         0.210251         0.070836
 C        -2.256206         0.875687        -0.342911
 O        -2.891429         1.671304         0.743831
 C        -3.181889        -0.218426        -0.957645
 C        -4.722121        -0.090536        -1.039750
 C        -4.430290        -0.572453        -2.457642
 O        -3.074485        -0.270107        -2.473789
 H         1.736339        -0.345013         1.372550
 H         1.857477        -1.343746        -0.009446
 H         2.017531         0.455010        -0.190534
 H        -2.129046         1.609351        -1.219707
 H        -3.722303         1.185829         1.111564
 H        -2.939864        -1.225424        -0.569828
 H        -5.425489        -0.741375        -0.428521
 H        -5.060571         0.965941        -0.977464
 H        -4.491067        -1.658178        -2.676778
 H        -4.794151         0.095749        -3.385455
