19
Iteration:  4768
 C         1.168270        -0.621151         0.027635
 C         0.001540         0.122004        -0.224476
 C        -1.061309         0.669079        -0.312492
 C        -2.431829         1.123866        -0.395128
 O        -2.852399         1.771784         0.911675
 C        -3.305923        -0.153587        -0.695954
 C        -4.655453         0.165821        -1.386374
 C        -4.181472        -0.759709        -2.467228
 O        -2.791208        -0.923739        -1.802651
 H         0.959057        -1.745874         0.119773
 H         2.014657        -0.524078        -0.653536
 H         1.360732        -0.577303         1.137870
 H        -2.697966         1.798517        -1.200919
 H        -2.203287         1.328436         1.547515
 H        -3.515470        -0.758823         0.199425
 H        -5.621211        -0.152396        -1.012179
 H        -4.774018         1.160192        -1.767616
 H        -4.659002        -1.711523        -2.721152
 H        -4.051541        -0.157098        -3.412021
