19
Iteration:  4083
 C         1.450801        -0.350704        -0.174588
 C        -0.055817        -0.196090        -0.032457
 C        -1.113265         0.429542         0.032494
 C        -2.414411         0.980296        -0.279436
 O        -2.966575         1.685166         0.824847
 C        -3.411069        -0.328526        -0.639358
 C        -4.663665         0.257870        -1.385454
 C        -3.930944        -0.266026        -2.685378
 O        -2.973969        -1.004312        -1.831048
 H         1.519122         0.335822        -1.124753
 H         2.025342         0.126965         0.703228
 H         1.894898        -1.285931        -0.464285
 H        -2.352609         1.694144        -1.214625
 H        -3.621765         1.092703         1.303845
 H        -3.347985        -0.890544         0.321790
 H        -5.523959        -0.392648        -1.238462
 H        -4.945747         1.274494        -1.105792
 H        -4.561839        -0.932279        -3.304361
 H        -3.466268         0.529072        -3.264203
