19
Iteration:  1669
 C         1.304202        -0.261525        -0.182272
 C        -0.068647         0.277606        -0.012314
 C        -1.294556         0.534211         0.043884
 C        -2.666229         0.456870         0.324140
 O        -3.073215        -0.356598         1.505425
 C        -3.300794        -0.113867        -1.050310
 C        -4.645106         0.210829        -1.630549
 C        -3.846631         0.557126        -2.927911
 O        -2.595408         0.309554        -2.290810
 H         1.771132         0.078226        -1.133091
 H         1.853027        -0.037314         0.676053
 H         1.350042        -1.453653        -0.190785
 H        -3.051647         1.533071         0.414669
 H        -2.629969        -1.183023         1.492526
 H        -3.246368        -1.197373        -0.952512
 H        -5.427610        -0.545413        -1.607219
 H        -5.092879         1.141788        -1.256153
 H        -3.839689        -0.235305        -3.685114
 H        -3.862301         1.481536        -3.419969
