19
Iteration:  4157
 C         1.427705        -0.470128        -0.045939
 C         0.144091         0.217642        -0.130673
 C        -1.052158         0.457521         0.067288
 C        -2.498477         0.833363        -0.242340
 O        -3.000318         1.562483         0.866632
 C        -3.446841        -0.306110        -0.726857
 C        -4.693765         0.297744        -1.378886
 C        -4.083026        -0.396904        -2.693482
 O        -2.958391        -0.922742        -1.914572
 H         2.199296         0.291446        -0.062470
 H         1.498321        -1.154286         0.804164
 H         1.698214        -1.017619        -0.955093
 H        -2.244353         1.434102        -1.074779
 H        -2.128982         1.757150         1.322223
 H        -3.545249        -0.951694         0.123377
 H        -5.710926         0.083920        -1.033869
 H        -4.575244         1.367859        -1.564216
 H        -4.746062        -1.215451        -3.024418
 H        -3.773667         0.336735        -3.418338
