19
Iteration:   701
 C         1.349976        -0.398212         0.258647
 C         0.067579         0.179047         0.034546
 C        -1.138622         0.295483         0.100841
 C        -2.540266         0.398094         0.014541
 O        -3.015583        -0.332460         1.191177
 C        -3.064770        -0.177715        -1.332621
 C        -4.536793        -0.300559        -1.615469
 C        -4.331728         0.803414        -2.617223
 O        -2.911881         0.975282        -2.304124
 H         1.501014        -0.781883         1.321634
 H         1.654362        -1.194883        -0.486225
 H         2.117445         0.283713         0.113293
 H        -2.969967         1.411433         0.136097
 H        -2.265986        -0.732640         1.788843
 H        -2.671076        -1.060076        -1.678706
 H        -4.770440        -1.310677        -2.005656
 H        -5.272807         0.019064        -0.892184
 H        -4.589763         0.479018        -3.577548
 H        -4.650905         1.787058        -2.501357
