19
Iteration:   136charge 0 multiplicity 1
 C         1.596453        -0.076398         0.452544
 C         0.165990         0.090753         0.113767
 C        -1.035840        -0.056614         0.003830
 C        -2.448621         0.136287        -0.081991
 O        -3.123040        -0.815243         0.707608
 C        -3.153748        -0.116325        -1.446120
 C        -4.665949         0.142067        -1.251512
 C        -4.382509         1.239682        -2.241210
 O        -2.973862         0.882363        -2.429492
 H         2.199442        -0.228159        -0.348969
 H         1.975453         0.812521         0.908973
 H         1.680161        -0.888724         1.231183
 H        -2.695244         1.117207         0.345546
 H        -3.007677        -1.667880         0.241476
 H        -2.885142        -1.090855        -1.878577
 H        -5.326958        -0.639792        -1.600246
 H        -5.164744         0.428779        -0.312810
 H        -4.924596         1.284325        -3.245748
 H        -4.301351         2.239225        -1.870065
