19
Iteration:   442
 C         1.364814         0.174978        -0.131300
 C        -0.010640         0.112636         0.249407
 C        -1.198272         0.186263         0.356052
 C        -2.609217         0.081292         0.153245
 O        -3.127633        -0.887929         1.242848
 C        -3.193985        -0.225916        -1.302797
 C        -4.636493         0.310488        -1.596064
 C        -3.995498         1.142473        -2.667459
 O        -2.670893         0.570917        -2.342384
 H         1.592062        -0.680311        -0.953019
 H         1.510562         1.135523        -0.613706
 H         2.027855         0.323607         0.769331
 H        -3.151583         1.112219         0.328611
 H        -3.258393        -1.696553         0.596147
 H        -3.017714        -1.275388        -1.641429
 H        -5.403734        -0.347473        -1.961082
 H        -4.978969         0.843032        -0.760723
 H        -4.228228         0.746939        -3.675576
 H        -4.047754         2.264851        -2.678847
