19
Iteration:  2111charge 0 multiplicity 1
 C         1.481984        -0.219980        -0.190254
 C         0.137196         0.187052         0.160720
 C        -1.119758         0.367488         0.115897
 C        -2.568155         0.547453         0.145699
 O        -3.325320         0.117141         1.348911
 C        -3.311443        -0.113224        -1.014130
 C        -4.575598         0.328102        -1.436352
 C        -4.045464         0.226324        -2.902780
 O        -2.695668         0.070843        -2.371645
 H         2.173792         0.512358        -0.321220
 H         1.752468        -0.964459         0.517852
 H         1.550046        -0.838774        -1.120398
 H        -2.741573         1.639737         0.351038
 H        -3.356342        -0.871376         1.182994
 H        -3.225135        -1.226512        -0.901730
 H        -5.505654        -0.191888        -1.346569
 H        -4.830322         1.315498        -1.013611
 H        -4.522886        -0.674737        -3.555083
 H        -4.032362         1.180083        -3.430548
