19
Iteration:  2821charge 0 multiplicity 1
 C         1.440709        -0.227163        -0.312288
 C         0.023374         0.025034        -0.004062
 C        -1.119853         0.374917         0.155351
 C        -2.542584         0.629875         0.081200
 O        -3.346188         0.689448         1.292554
 C        -3.270714        -0.328098        -0.913300
 C        -4.530973         0.328105        -1.327099
 C        -3.997341         0.167412        -2.896989
 O        -2.710457        -0.429302        -2.236735
 H         1.980888        -0.087008         0.653833
 H         1.592937        -1.244610        -0.757759
 H         1.857167         0.428998        -0.968264
 H        -2.436454         1.684585        -0.426904
 H        -3.351244         1.610747         1.530181
 H        -3.336014        -1.334042        -0.501692
 H        -5.556670         0.014027        -1.175949
 H        -4.555048         1.350951        -1.015043
 H        -4.498342        -0.637775        -3.511027
 H        -3.915137         1.156570        -3.567782
