19
Iteration:  1106charge 0 multiplicity 1
 C         1.509739        -0.177678        -0.142234
 C         0.127448         0.087754         0.175592
 C        -1.101736         0.239613         0.265279
 C        -2.557023         0.404052         0.162620
 O        -3.445262        -0.173303         1.269675
 C        -3.052862        -0.229630        -1.244045
 C        -4.582000         0.031619        -1.460155
 C        -4.173292         0.647913        -2.763669
 O        -2.728111         0.592895        -2.417455
 H         1.651623        -1.310598         0.200932
 H         1.821347        -0.115978        -1.269466
 H         2.084741         0.581982         0.357933
 H        -3.040299         1.440977         0.310240
 H        -2.971474        -0.918767         1.708627
 H        -2.792582        -1.273725        -1.354250
 H        -5.252576        -0.877046        -1.500548
 H        -5.126236         0.785791        -0.840340
 H        -4.288859        -0.016000        -3.628179
 H        -4.448555         1.714929        -3.002768
