19
Iteration:  4649
 C         1.384141        -0.458807        -0.028651
 C         0.087609         0.083915         0.021407
 C        -1.021267         0.532721        -0.025299
 C        -2.379549         0.968423        -0.323591
 O        -3.023986         1.555503         0.731866
 C        -3.320771        -0.190915        -0.706750
 C        -4.572988         0.427971        -1.451414
 C        -4.284409        -0.683563        -2.414784
 O        -2.948535        -0.970455        -1.948648
 H         1.955863        -0.536334         0.846286
 H         1.221990        -1.461459        -0.538182
 H         2.114901         0.103759        -0.744589
 H        -2.233976         1.590232        -1.236673
 H        -2.424781         2.250430         1.034254
 H        -3.501378        -0.745301         0.277273
 H        -5.559769         0.440271        -0.898670
 H        -4.514844         1.477950        -1.771722
 H        -4.974347        -1.557947        -2.333764
 H        -4.327934        -0.316769        -3.480606
