19
Iteration:  3581
 C         1.459774        -0.092624        -0.173457
 C         0.054242         0.029241        -0.002789
 C        -1.112291         0.224797         0.150831
 C        -2.443096         0.722008        -0.120320
 O        -3.114512         1.180363         1.057164
 C        -3.413226        -0.300588        -0.795318
 C        -4.657371         0.310500        -1.431312
 C        -4.073103        -0.297502        -2.753899
 O        -2.822365        -0.602253        -2.093778
 H         1.670183        -1.176759        -0.342592
 H         1.878673         0.410110        -1.117141
 H         2.016486         0.351515         0.623292
 H        -2.466328         1.474839        -0.900766
 H        -2.508354         1.874100         1.382894
 H        -3.652885        -1.253917        -0.114959
 H        -5.529976        -0.098840        -0.929034
 H        -4.562568         1.376853        -1.343872
 H        -4.763105        -1.129466        -3.126815
 H        -3.964651         0.526446        -3.487633
