19
Iteration:  3272charge 0 multiplicity 1
 C         1.539169        -0.274125         0.225244
 C         0.173549         0.074444        -0.106795
 C        -1.020318         0.330176         0.041501
 C        -2.383362         0.740562        -0.218970
 O        -3.049318         0.966309         1.074195
 C        -3.273905        -0.289626        -0.921802
 C        -4.710774         0.096553        -1.245233
 C        -4.299076         0.003679        -2.747551
 O        -2.964777        -0.399348        -2.322207
 H         1.940691        -0.913962        -0.642377
 H         2.275051         0.606463         0.046251
 H         1.445582        -0.735535         1.177713
 H        -2.319357         1.742334        -0.785937
 H        -3.727603         1.679635         0.932744
 H        -3.336137        -1.250355        -0.253086
 H        -5.400671        -0.697583        -0.894727
 H        -5.005938         1.074043        -0.819342
 H        -4.740422        -0.931181        -3.244576
 H        -4.294623         0.935243        -3.336764
