19
Iteration:  3915
 C         1.427988        -0.521622         0.224664
 C         0.175306         0.167004         0.081225
 C        -1.004881         0.496464        -0.101853
 C        -2.416571         0.940379        -0.357339
 O        -2.945597         1.419840         0.883455
 C        -3.242598        -0.164322        -0.866259
 C        -4.752137         0.062373        -1.271392
 C        -4.416439        -0.632742        -2.538771
 O        -2.956225        -0.479912        -2.282181
 H         1.360370        -1.435561         0.870757
 H         1.709218        -0.668493        -0.817688
 H         2.270897         0.143469         0.718061
 H        -2.339454         1.833809        -1.022824
 H        -2.165204         1.992820         1.165927
 H        -2.984299        -1.049408        -0.270235
 H        -5.268067        -0.393812        -0.415257
 H        -5.046946         1.113326        -1.247536
 H        -4.746719        -1.700347        -2.644740
 H        -4.701362        -0.265464        -3.478741
