19
Iteration:  2834
 C         1.408596        -0.252047        -0.289507
 C         0.017432         0.077004        -0.049043
 C        -1.124500         0.352753         0.235990
 C        -2.551715         0.662304         0.052008
 O        -3.258617         0.691237         1.254479
 C        -3.325641        -0.373969        -0.892415
 C        -4.612346         0.369776        -1.473694
 C        -3.944842         0.074801        -2.784573
 O        -2.716865        -0.337409        -2.241102
 H         2.004836        -0.449406         0.592759
 H         1.632272        -1.125506        -0.936082
 H         1.749722         0.621684        -0.770795
 H        -2.792948         1.581166        -0.522779
 H        -2.876928         1.323344         1.928831
 H        -3.458775        -1.364918        -0.456824
 H        -5.516120        -0.164699        -1.105939
 H        -4.561035         1.458807        -1.152271
 H        -4.385190        -0.717813        -3.391524
 H        -3.685858         1.001260        -3.442169
