19
Iteration:  2293
 C         1.578479        -0.139478        -0.314983
 C         0.116872         0.078645         0.169429
 C        -1.086232         0.130214         0.209553
 C        -2.550290         0.534541         0.094043
 O        -3.382580         0.349946         1.236618
 C        -3.226638        -0.310769        -0.991407
 C        -4.623919         0.272741        -1.385215
 C        -4.010170         0.477520        -2.765363
 O        -2.776408        -0.135211        -2.322903
 H         1.701097        -1.186169        -0.567304
 H         1.921903         0.617883        -1.046616
 H         2.175509         0.056566         0.532719
 H        -2.662604         1.615038        -0.328287
 H        -4.115349         0.915650         0.909473
 H        -3.224743        -1.396758        -0.776505
 H        -5.459472        -0.411142        -1.373071
 H        -4.857489         1.257181        -0.963794
 H        -4.403179        -0.292876        -3.591799
 H        -3.998473         1.614033        -3.058889
