19
Iteration:  1083charge 0 multiplicity 1
 C         1.474985        -0.014541        -0.073445
 C         0.027382        -0.092597        -0.039474
 C        -1.127080         0.106977         0.229644
 C        -2.586022         0.385874         0.116720
 O        -3.391319        -0.083334         1.176580
 C        -3.123030        -0.261339        -1.167412
 C        -4.637192         0.046221        -1.421770
 C        -4.029542         0.684244        -2.742880
 O        -2.678256         0.535747        -2.271622
 H         1.960597        -0.858085         0.518796
 H         1.813015        -0.146002        -1.206044
 H         1.656103         1.053624         0.092815
 H        -2.745035         1.551126         0.185451
 H        -2.942557        -0.949182         1.445299
 H        -2.831257        -1.293345        -1.157632
 H        -5.301478        -0.818240        -1.587527
 H        -5.136396         0.699321        -0.680253
 H        -4.259791         0.221558        -3.689379
 H        -4.188730         1.802977        -2.680123
