19
Iteration:  1227
 C         1.438494        -0.453857         0.338449
 C         0.165497         0.053264         0.032373
 C        -1.004211         0.420050        -0.125670
 C        -2.495700         0.493354         0.138274
 O        -3.046839        -0.148908         1.294275
 C        -3.156096        -0.103174        -1.237958
 C        -4.673604        -0.180385        -1.544297
 C        -4.263481         0.464185        -2.854309
 O        -3.034882         0.909918        -2.324310
 H         1.930215        -0.781044        -0.617441
 H         2.121901         0.206418         0.899093
 H         1.428131        -1.238883         1.050261
 H        -2.844560         1.593440         0.315476
 H        -2.595510        -0.969679         1.345482
 H        -2.661075        -1.041062        -1.595391
 H        -5.269515        -1.144783        -1.623580
 H        -5.180160         0.389074        -0.721286
 H        -4.019869        -0.068994        -3.754409
 H        -4.828109         1.344079        -3.247415
