19
Iteration:  3978charge 0 multiplicity 1
 C         1.247081        -0.523841         0.151270
 C         0.015808         0.102355        -0.144363
 C        -0.971322         0.790562        -0.264950
 C        -2.366009         1.098202        -0.329282
 O        -2.894831         1.184863         0.991290
 C        -3.231774        -0.148032        -0.818898
 C        -4.710457         0.272091        -1.308384
 C        -4.223108        -0.487729        -2.612964
 O        -2.898596        -0.947490        -1.997868
 H         1.420407        -1.501530        -0.235641
 H         2.008523         0.082057        -0.344393
 H         1.404792        -0.482587         1.295762
 H        -2.749636         1.969218        -1.007126
 H        -3.181230         2.127909         1.279745
 H        -3.130982        -0.705036         0.097854
 H        -5.594408         0.001469        -0.686707
 H        -4.677869         1.352992        -1.555588
 H        -4.897466        -1.357112        -2.802989
 H        -4.109748         0.225445        -3.475519
