19
Iteration:  4616charge 0 multiplicity 1
 C         1.549978        -0.451421         0.018382
 C         0.250728         0.131359         0.242571
 C        -0.924313         0.466262        -0.022001
 C        -2.264180         1.026180        -0.376191
 O        -3.026679         1.545473         0.698472
 C        -3.328739        -0.088923        -0.726486
 C        -4.749384         0.308059        -1.475161
 C        -4.387156        -0.649743        -2.525489
 O        -3.113849        -0.982241        -1.962155
 H         2.340289        -0.261637         0.679889
 H         1.483822        -1.629957        -0.120479
 H         1.720159        -0.331482        -1.124886
 H        -2.247734         1.865518        -1.123364
 H        -2.673200         2.407225         1.126075
 H        -3.384568        -0.867439         0.192758
 H        -5.529789        -0.080658        -0.761296
 H        -4.848609         1.398560        -1.724423
 H        -5.137738        -1.462880        -2.458722
 H        -4.328739        -0.185259        -3.558504
