19
Iteration:   822charge 0 multiplicity 1
 C         1.494682        -0.029109        -0.085549
 C         0.106952         0.041743         0.151582
 C        -1.110015         0.044886         0.284329
 C        -2.527780         0.342187         0.123644
 O        -3.377838        -0.378879         1.000673
 C        -3.149045        -0.085623        -1.156918
 C        -4.631141         0.172869        -1.391168
 C        -4.109761         0.577795        -2.800487
 O        -2.771861         0.691808        -2.265719
 H         1.847034        -0.675631        -1.000321
 H         2.050314         0.905589        -0.279324
 H         1.959760        -0.489481         0.735604
 H        -2.704090         1.421449         0.182305
 H        -2.937086        -0.872538         1.705456
 H        -2.808134        -1.102842        -1.482238
 H        -5.339699        -0.604711        -1.135756
 H        -4.820023         1.087418        -0.785528
 H        -4.309974        -0.247302        -3.546959
 H        -4.528259         1.554620        -3.123114
