19
Iteration:  3792
 C         1.560200        -0.412072         0.431709
 C         0.213423         0.156165         0.366511
 C        -0.874422         0.457024        -0.138688
 C        -2.278865         0.867765        -0.519632
 O        -2.869733         1.381395         0.734771
 C        -3.150790        -0.248787        -1.028747
 C        -4.654550        -0.103975        -0.940700
 C        -4.671108        -0.357277        -2.544099
 O        -3.187503        -0.418759        -2.491748
 H         2.089688         0.366796         0.951747
 H         1.560146        -1.339909         1.044426
 H         2.039786        -0.785609        -0.580953
 H        -2.184343         1.652149        -1.280051
 H        -3.847076         1.090571         0.676093
 H        -2.997230        -1.204593        -0.469474
 H        -5.243284        -0.871113        -0.481261
 H        -5.082871         0.900367        -0.812846
 H        -5.217816        -1.261859        -2.934289
 H        -5.008940         0.528326        -3.003676
