19
Iteration:  4409
 C         1.600475        -0.329070         0.375596
 C         0.189031        -0.035005         0.162331
 C        -0.951598         0.402386        -0.014599
 C        -2.249589         0.923291        -0.533921
 O        -2.806434         1.650865         0.614078
 C        -3.233981        -0.238390        -0.883853
 C        -4.823571        -0.037436        -1.053857
 C        -4.561063        -0.405146        -2.528136
 O        -3.221871        -0.789484        -2.274230
 H         2.063134        -1.046703        -0.309514
 H         2.064857         0.701064         0.236032
 H         1.842339        -0.360658         1.493118
 H        -2.126367         1.492897        -1.511025
 H        -2.489432         2.519024         0.474672
 H        -2.996893        -1.029002        -0.245731
 H        -5.399920        -0.776315        -0.453812
 H        -5.371355         0.941556        -1.020435
 H        -5.244393        -1.220776        -2.615270
 H        -4.617542         0.393306        -3.250371
