19
Iteration:   957
 C         1.421496         0.074176         0.034595
 C        -0.018191         0.208439        -0.125967
 C        -1.186499         0.426930         0.182280
 C        -2.561969         0.309837         0.177808
 O        -3.189278        -0.434370         1.208038
 C        -3.363237        -0.444025        -1.162276
 C        -4.629297         0.424887        -1.455715
 C        -3.764780         1.008021        -2.624098
 O        -2.837231        -0.098012        -2.469365
 H         1.985260         1.027376         0.226045
 H         1.423408        -0.579658         0.869364
 H         1.927461        -0.366982        -0.912119
 H        -3.008805         1.339976         0.146990
 H        -2.365573        -0.805172         1.708626
 H        -3.361639        -1.571111        -1.151928
 H        -5.498774        -0.254995        -1.673035
 H        -4.889139         1.220677        -0.712920
 H        -4.325413         1.103627        -3.631681
 H        -3.330765         2.037695        -2.480876
