19
Iteration:  3769charge 0 multiplicity 1
 C         1.437664        -0.337760         0.538223
 C         0.101931         0.091272         0.199671
 C        -0.951293         0.531287        -0.215633
 C        -2.293337         0.984428        -0.513514
 O        -2.670230         1.265982         0.844950
 C        -3.061392        -0.279940        -1.101383
 C        -4.728331        -0.128524        -0.959573
 C        -4.660634        -0.257770        -2.510423
 O        -3.173721        -0.526205        -2.498205
 H         2.051579         0.561589         0.655438
 H         1.442991        -1.015878         1.470076
 H         1.806049        -1.157071        -0.218659
 H        -2.289555         1.784187        -1.274583
 H        -3.575067         1.541590         0.855513
 H        -2.795501        -1.200738        -0.558586
 H        -5.319779        -1.000780        -0.648688
 H        -5.009213         0.861213        -0.562163
 H        -5.117513        -1.211426        -2.829985
 H        -4.905229         0.540659        -3.173088
