19
Iteration:    15charge 0 multiplicity 1
 C         1.515634        -0.062378         0.195080
 C         0.081521         0.076767        -0.108120
 C        -1.115864         0.021949         0.103871
 C        -2.586727         0.035258         0.034035
 O        -3.055308        -0.979809         0.945023
 C        -3.172109        -0.161423        -1.387491
 C        -4.706443         0.104532        -1.457684
 C        -4.267250         1.342569        -2.346844
 O        -2.765890         1.087413        -2.177592
 H         1.511128        -0.706910         1.038919
 H         2.221107        -0.488982        -0.518426
 H         1.930807         1.024362         0.663791
 H        -3.004874         1.042179         0.395553
 H        -3.160397        -1.771766         0.315217
 H        -2.842600        -1.101477        -1.874103
 H        -5.223163        -0.641925        -2.114716
 H        -5.274858         0.052525        -0.581856
 H        -4.584700         1.004852        -3.387434
 H        -4.502734         2.337125        -2.079056
