19
Iteration:  2902
 C         1.364836        -0.348829        -0.164558
 C        -0.052872         0.023695        -0.141593
 C        -1.146996         0.555979         0.047991
 C        -2.593405         0.779981         0.082980
 O        -2.947854         0.681502         1.439025
 C        -3.381363        -0.188618        -0.882792
 C        -4.684042         0.265759        -1.540146
 C        -3.933893        -0.165390        -2.872699
 O        -2.729812        -0.210175        -2.182233
 H         1.654029        -1.360869        -0.062928
 H         1.805053         0.061031        -1.045043
 H         1.782681         0.304006         0.688416
 H        -2.748778         1.881228        -0.344334
 H        -3.585788         0.011432         1.454683
 H        -3.404852        -1.237754        -0.529175
 H        -5.536860        -0.470824        -1.452326
 H        -4.948172         1.412929        -1.617444
 H        -4.335502        -1.089221        -3.328900
 H        -3.787292         0.644395        -3.671186
