19
Iteration:  4057
 C         1.397431        -0.367956        -0.089491
 C        -0.004678        -0.015092        -0.175748
 C        -1.167277         0.218318        -0.112930
 C        -2.440681         0.861354        -0.131656
 O        -2.917079         1.768701         0.877162
 C        -3.455670        -0.261410        -0.633814
 C        -4.748165         0.172663        -1.498053
 C        -3.933585        -0.339868        -2.621631
 O        -2.864888        -0.849958        -1.851168
 H         1.736151        -0.199396        -1.121969
 H         1.932011         0.335200         0.576695
 H         1.602932        -1.480003         0.132971
 H        -2.440907         1.542178        -1.031783
 H        -2.770812         1.381536         1.811658
 H        -3.516187        -0.919222         0.190214
 H        -5.598550        -0.470582        -1.190685
 H        -5.137532         1.205427        -1.481335
 H        -4.489124        -1.030829        -3.312947
 H        -3.662877         0.489951        -3.290018
