19
Iteration:   643charge 0 multiplicity 1
 C         1.571496        -0.231985         0.346885
 C         0.090359        -0.001486         0.323805
 C        -1.085164         0.300245         0.125294
 C        -2.487175         0.433836        -0.050812
 O        -3.092789        -0.395744         0.894520
 C        -3.027484        -0.127222        -1.405111
 C        -4.605898        -0.188070        -1.390555
 C        -4.399184         0.979622        -2.533332
 O        -2.991794         0.701543        -2.465387
 H         2.055081         0.252520         1.166654
 H         1.667476        -1.358726         0.590390
 H         2.025186         0.163175        -0.645600
 H        -2.993059         1.360458         0.187383
 H        -2.782926        -1.231065         0.640711
 H        -2.524857        -1.117440        -1.433554
 H        -5.071040        -1.157108        -1.641641
 H        -5.174654         0.198819        -0.523471
 H        -5.016105         0.727926        -3.465083
 H        -4.606967         2.057258        -2.215752
