19
Iteration:  2880
 C         1.457386        -0.269688        -0.221367
 C         0.009348         0.034576        -0.036880
 C        -1.165429         0.346285        -0.032654
 C        -2.552618         0.787623         0.097819
 O        -3.109920         0.749921         1.527472
 C        -3.364518        -0.071144        -0.869981
 C        -4.731649         0.208075        -1.625002
 C        -3.980359        -0.076365        -2.892766
 O        -2.685181        -0.291623        -2.174367
 H         1.626466        -1.239382         0.163526
 H         1.577388        -0.452036        -1.278569
 H         2.239189         0.483895         0.128383
 H        -2.629209         1.811841        -0.316415
 H        -3.189900        -0.263948         1.714584
 H        -3.369957        -1.069388        -0.398422
 H        -5.614862        -0.485308        -1.558133
 H        -4.956954         1.362247        -1.557331
 H        -4.152000        -1.017195        -3.410394
 H        -3.961916         0.794120        -3.613336
