19
Iteration:  2619
 C         1.605409        -0.401455         0.291914
 C         0.212893         0.171176         0.159281
 C        -0.992263         0.375671        -0.087229
 C        -2.423622         0.744084        -0.118314
 O        -3.216698         0.567896         1.023945
 C        -3.173887        -0.331975        -1.057392
 C        -4.700106         0.096990        -1.171108
 C        -4.399749         0.222812        -2.724290
 O        -2.941193        -0.069259        -2.527144
 H         1.691477        -1.453504         0.061276
 H         2.156678         0.141524        -0.441767
 H         2.133493        -0.244990         1.288800
 H        -2.657567         1.698505        -0.431008
 H        -2.571703         0.380370         1.678825
 H        -3.024255        -1.407392        -0.829878
 H        -5.473230        -0.612836        -0.856881
 H        -4.868503         1.039425        -0.637426
 H        -4.855944        -0.515051        -3.490970
 H        -4.643374         1.236296        -3.285665
