19
Iteration:  4167charge 0 multiplicity 1
 C         1.449753        -0.411792        -0.028021
 C         0.077559         0.117260        -0.114817
 C        -1.122090         0.446657        -0.005061
 C        -2.415717         0.878505        -0.324930
 O        -2.937965         1.538243         0.937267
 C        -3.426107        -0.275681        -0.656091
 C        -4.687951         0.290728        -1.475113
 C        -4.120769        -0.425466        -2.607533
 O        -2.947358        -0.875363        -1.950465
 H         2.238706         0.206948         0.282532
 H         1.300703        -1.096721         0.779864
 H         1.658481        -1.020459        -0.929277
 H        -2.558506         1.587321        -1.103736
 H        -2.195468         2.044999         1.313278
 H        -3.433703        -1.091348         0.095855
 H        -5.656927        -0.148437        -1.216604
 H        -4.724193         1.382390        -1.380594
 H        -4.680997        -1.296269        -3.029750
 H        -3.931007         0.150368        -3.523407
