19
Iteration:   185
 C         1.545788        -0.039194         0.339365
 C         0.142259        -0.077172         0.091580
 C        -1.072840        -0.010880         0.017871
 C        -2.550544         0.095508        -0.008714
 O        -2.901884        -0.885130         0.986920
 C        -3.249192        -0.123691        -1.358763
 C        -4.726202         0.135719        -1.506220
 C        -4.331092         1.275598        -2.521135
 O        -2.908171         1.006458        -2.268407
 H         2.113962         0.706842        -0.433301
 H         1.911209         0.299014         1.384260
 H         1.949607        -1.122018         0.202440
 H        -2.848465         1.099981         0.471324
 H        -3.837964        -1.222782         0.943938
 H        -2.773451        -0.983702        -1.883106
 H        -5.274633        -0.808971        -1.824646
 H        -5.280232         0.339572        -0.591555
 H        -4.576954         1.058550        -3.545125
 H        -4.602439         2.373766        -2.341729
