19
Iteration:   145
 C         1.626785        -0.046451         0.460412
 C         0.175370         0.049844         0.081572
 C        -1.043855         0.008520        -0.030454
 C        -2.512740         0.076338        -0.109179
 O        -3.138621        -0.832247         0.756503
 C        -3.110577        -0.098091        -1.393188
 C        -4.663420         0.102722        -1.221035
 C        -4.344158         1.296467        -2.299596
 O        -2.984825         0.894423        -2.410154
 H         2.233929        -0.210924        -0.396051
 H         2.012698         0.692662         1.117056
 H         1.632608        -0.924477         0.965919
 H        -2.783222         1.072797         0.136167
 H        -3.416775        -1.623988         0.240326
 H        -2.847503        -1.111754        -1.711914
 H        -5.233380        -0.706827        -1.705727
 H        -4.868184         0.437714        -0.257571
 H        -4.792017         1.160762        -3.320414
 H        -4.582689         2.302925        -1.955906
