19
Iteration:  4993charge 0 multiplicity 1
 C         1.440863        -0.362106         0.609521
 C         0.250824         0.172846        -0.139298
 C        -0.814797         0.527416        -0.610271
 C        -2.307546         0.941256        -0.579655
 O        -2.654626         1.440780         0.679623
 C        -3.383775        -0.102472        -0.775888
 C        -4.782468         0.303126        -1.131280
 C        -4.554233        -0.600164        -2.405316
 O        -3.201760        -0.990108        -2.007767
 H         2.175273         0.272658         1.071782
 H         0.928090        -1.006830         1.346710
 H         2.060122        -1.127497         0.166318
 H        -2.312279         1.726179        -1.330238
 H        -2.739716         2.366482         0.730624
 H        -3.286999        -0.747830         0.013842
 H        -5.609078        -0.074200        -0.555218
 H        -5.051678         1.340641        -1.447947
 H        -5.172390        -1.555535        -2.404406
 H        -4.555957        -0.201318        -3.441552
