19
Iteration:   297
 C         1.393842         0.038879        -0.364272
 C         0.016114        -0.011012         0.203380
 C        -1.170907         0.173800         0.390894
 C        -2.646538         0.124893         0.315355
 O        -3.387348        -0.955612         1.007085
 C        -3.052860        -0.015427        -1.175590
 C        -4.504030         0.072381        -1.514495
 C        -4.073275         1.026120        -2.715282
 O        -2.631810         0.998543        -2.180681
 H         2.094447         0.483685         0.519483
 H         1.750272        -1.006108        -0.539364
 H         1.459637         0.700258        -1.177204
 H        -2.972035         1.148924         0.722681
 H        -3.464015        -1.602604         0.256005
 H        -2.486043        -0.950969        -1.394094
 H        -5.033669        -0.861154        -1.529313
 H        -5.118962         0.536131        -0.860293
 H        -4.016535         0.677037        -3.719826
 H        -4.546174         2.027438        -2.633039
