19
Iteration:  4055
 C         1.395591        -0.379875        -0.075558
 C         0.002895         0.004687        -0.187392
 C        -1.172328         0.215614        -0.116829
 C        -2.442104         0.866838        -0.134730
 O        -2.913224         1.756926         0.877024
 C        -3.466889        -0.267626        -0.621441
 C        -4.754293         0.179422        -1.501932
 C        -3.939334        -0.348559        -2.628694
 O        -2.860004        -0.834252        -1.844930
 H         1.731475        -0.210733        -1.055979
 H         1.965810         0.324947         0.483108
 H         1.587589        -1.451825         0.152592
 H        -2.371559         1.529587        -0.961776
 H        -2.686255         1.403945         1.752456
 H        -3.515299        -0.963893         0.220780
 H        -5.593109        -0.504306        -1.247032
 H        -5.174408         1.196918        -1.467421
 H        -4.461974        -1.039695        -3.300524
 H        -3.681835         0.477216        -3.351481
