19
Iteration:  4485charge 0 multiplicity 1
 C         1.461684        -0.286799         0.558946
 C         0.226168         0.271271        -0.075870
 C        -0.906501         0.464361        -0.422390
 C        -2.257806         0.876902        -0.575357
 O        -2.696292         1.590817         0.719647
 C        -3.305930        -0.352208        -0.849184
 C        -4.777084         0.169576        -1.079999
 C        -4.493415        -0.390573        -2.559034
 O        -3.285821        -1.003680        -2.102222
 H         2.318276        -0.371934        -0.031242
 H         1.515526         0.189856         1.562809
 H         1.257628        -1.426144         0.778955
 H        -2.340451         1.679684        -1.294227
 H        -2.024371         1.119934         1.310631
 H        -3.253095        -0.988955        -0.005020
 H        -5.548865        -0.435809        -0.571904
 H        -5.220537         1.152477        -0.826192
 H        -5.151862        -1.062149        -3.069375
 H        -4.291869         0.487406        -3.189665
