19
Iteration:  4509
 C         1.495899        -0.281178         0.517562
 C         0.157509         0.083737         0.001446
 C        -0.929857         0.512107        -0.467454
 C        -2.325345         0.968798        -0.474585
 O        -2.507275         1.661318         0.742852
 C        -3.344510        -0.234864        -0.748863
 C        -4.823020         0.070673        -1.251655
 C        -4.520686        -0.421950        -2.586919
 O        -3.269885        -1.052742        -2.105536
 H         2.333724         0.283858         0.021031
 H         1.305527        -0.002082         1.570260
 H         1.859204        -1.320475         0.474034
 H        -2.541122         1.826300        -1.126049
 H        -2.433177         1.007942         1.514215
 H        -3.249327        -0.884655         0.071262
 H        -5.574294        -0.617806        -0.757648
 H        -5.365973         0.992884        -0.980269
 H        -5.162022        -1.091965        -3.163377
 H        -4.339847         0.467893        -3.184090
