19
Iteration:  4368
 C         1.596327        -0.387041         0.312898
 C         0.158728         0.098694         0.152659
 C        -1.006654         0.289769        -0.084895
 C        -2.356331         0.778977        -0.415929
 O        -2.857532         1.791040         0.486955
 C        -3.303447        -0.361327        -0.770763
 C        -4.819307        -0.080184        -1.097341
 C        -4.489039        -0.511826        -2.441020
 O        -3.076530        -0.443874        -2.257835
 H         1.632328        -1.528483         0.380079
 H         2.101419         0.125578        -0.511899
 H         2.123063        -0.210639         1.188604
 H        -2.231360         1.328149        -1.393299
 H        -1.974626         2.043571         0.941479
 H        -2.970613        -1.276711        -0.120189
 H        -5.654065        -0.689153        -0.679722
 H        -5.053812         0.971258        -0.805879
 H        -4.712324        -1.622572        -2.716535
 H        -4.774301         0.167102        -3.300847
