19
Iteration:  2431charge 0 multiplicity 1
 C         1.367098        -0.484930         0.224129
 C         0.137928         0.215217         0.144361
 C        -0.994047         0.614888        -0.080892
 C        -2.469440         0.718507        -0.071724
 O        -2.984884         0.360392         1.250059
 C        -3.076984        -0.231614        -1.132504
 C        -4.615087        -0.025589        -1.265697
 C        -4.346493         0.275394        -2.736234
 O        -2.945804         0.013354        -2.551835
 H         2.253787         0.102963        -0.012100
 H         1.410935        -0.925341         1.192747
 H         1.392892        -1.423700        -0.518240
 H        -3.047186         1.745070        -0.262720
 H        -3.922062         0.574668         1.229529
 H        -2.608515        -1.229771        -0.999454
 H        -5.265228        -0.930282        -1.205784
 H        -5.058494         0.839036        -0.731956
 H        -4.983622        -0.361055        -3.363957
 H        -4.394049         1.415522        -2.950685
