19
Iteration:  2209
 C         1.407926        -0.164094        -0.217568
 C        -0.011727         0.122603        -0.080219
 C        -1.216718         0.219747         0.048325
 C        -2.610956         0.583711         0.138361
 O        -3.022554         0.051836         1.448026
 C        -3.480737        -0.157047        -0.877879
 C        -4.720002         0.399011        -1.658876
 C        -3.784188         0.341787        -2.923893
 O        -2.669537        -0.029211        -2.123837
 H         2.006346        -0.593219         0.728438
 H         1.463496        -0.955355        -1.074626
 H         2.090452         0.771739        -0.549448
 H        -2.830618         1.613646         0.044540
 H        -3.700143         0.663144         1.778744
 H        -3.634422        -1.235554        -0.665020
 H        -5.698832        -0.185811        -1.601779
 H        -5.009830         1.452231        -1.345077
 H        -3.879761        -0.494087        -3.526117
 H        -3.818224         1.199859        -3.565007
