19
Iteration:  2560
 C         1.579579        -0.190300         0.317767
 C         0.132652        -0.170967         0.180431
 C        -1.015270         0.120074        -0.099304
 C        -2.368088         0.628778        -0.114041
 O        -3.022814         0.772872         1.273871
 C        -3.152086        -0.210408        -1.098137
 C        -4.715185         0.009623        -1.314725
 C        -4.427271         0.019715        -2.836125
 O        -3.014611         0.264386        -2.536547
 H         1.986773        -0.875219         1.077030
 H         1.913728        -0.682158        -0.614834
 H         2.032896         0.848760         0.329924
 H        -2.407709         1.629009        -0.623925
 H        -3.486477        -0.112749         1.510307
 H        -3.077359        -1.305248        -0.892839
 H        -5.256422        -0.840498        -0.816159
 H        -5.184766         0.985204        -0.942089
 H        -4.562983        -0.881430        -3.450253
 H        -4.858592         0.940110        -3.277365
