19
Iteration:  2745charge 0 multiplicity 1
 C         1.493287        -0.249192        -0.115128
 C         0.040497         0.009972         0.043460
 C        -1.134830         0.293376        -0.080691
 C        -2.592473         0.687091        -0.031224
 O        -3.036107         0.825083         1.406010
 C        -3.311127        -0.407476        -0.960785
 C        -4.689467         0.130119        -1.451197
 C        -4.030308         0.347596        -2.801454
 O        -2.794625        -0.330932        -2.288797
 H         2.269271         0.536458        -0.224019
 H         1.722560        -0.634545         0.967745
 H         1.626626        -1.091194        -0.781461
 H        -2.669033         1.518120        -0.650235
 H        -3.939442         0.474070         1.586396
 H        -3.360469        -1.436384        -0.669250
 H        -5.573635        -0.550347        -1.412654
 H        -4.874333         1.009842        -0.795942
 H        -4.483789        -0.164056        -3.644935
 H        -3.816275         1.455885        -2.947673
