19
Iteration:  3206charge 0 multiplicity 1
 C         1.402559        -0.197914         0.516487
 C         0.023286         0.103762         0.132143
 C        -1.044850         0.410608        -0.324207
 C        -2.407538         0.779209        -0.336339
 O        -2.562769         0.923088         1.128575
 C        -3.355151        -0.383609        -1.065468
 C        -4.738901        -0.062958        -1.149221
 C        -4.394339         0.137252        -2.693488
 O        -3.016677        -0.406440        -2.511558
 H         1.382294        -1.348449         0.817783
 H         2.213945        -0.235795        -0.400373
 H         1.885080         0.458737         1.276126
 H        -2.758627         1.708592        -0.865103
 H        -3.486685         1.064484         1.436907
 H        -3.016541        -1.379575        -0.537089
 H        -5.464407        -0.843474        -0.866931
 H        -4.931493         0.957150        -0.775968
 H        -4.971210        -0.483282        -3.391971
 H        -4.477832         1.161859        -3.008698
