19
Iteration:  3983charge 0 multiplicity 1
 C         1.294714        -0.520611         0.158494
 C        -0.017169         0.091676        -0.120150
 C        -0.998424         0.767378        -0.309847
 C        -2.398350         1.103910        -0.321454
 O        -2.886787         1.221074         1.035373
 C        -3.218404        -0.096377        -0.825040
 C        -4.671219         0.249349        -1.313193
 C        -4.214303        -0.473638        -2.604300
 O        -2.920739        -0.970486        -1.998862
 H         1.397067        -1.529934        -0.369148
 H         1.985063         0.186388        -0.361061
 H         1.464457        -0.640862         1.234387
 H        -2.802865         1.844944        -0.984804
 H        -3.090482         2.091778         1.303237
 H        -3.197687        -0.736170         0.095550
 H        -5.577191        -0.040096        -0.787791
 H        -4.800618         1.284415        -1.674101
 H        -4.781659        -1.334274        -3.010599
 H        -4.078033         0.161421        -3.469877
