19
Iteration:  2566charge 0 multiplicity 1
 C         1.578503        -0.188710         0.304647
 C         0.109704        -0.183225         0.169920
 C        -1.034881         0.156082        -0.061669
 C        -2.353945         0.627447        -0.136889
 O        -3.028208         0.768038         1.294989
 C        -3.130356        -0.184683        -1.121341
 C        -4.696702         0.020935        -1.296141
 C        -4.428963         0.034532        -2.817055
 O        -3.030588         0.192500        -2.540438
 H         1.851707        -1.003564         1.048636
 H         2.178780        -0.490115        -0.640069
 H         1.989513         0.787571         0.424151
 H        -2.410845         1.719619        -0.443247
 H        -3.468467        -0.060746         1.346919
 H        -2.875178        -1.267195        -1.160782
 H        -5.373648        -0.750127        -0.954686
 H        -5.100963         0.957477        -1.023307
 H        -4.567285        -0.842280        -3.475115
 H        -4.892867         0.968974        -3.162967
