19
Iteration:   470
 C         1.503413         0.149417         0.008610
 C         0.069810         0.284397         0.242079
 C        -1.139189         0.142557         0.161247
 C        -2.615767         0.100290         0.205725
 O        -3.237854        -0.860718         1.043721
 C        -3.259658        -0.212472        -1.209015
 C        -4.677286         0.309723        -1.500187
 C        -4.029347         1.121210        -2.627351
 O        -2.709494         0.481154        -2.389550
 H         1.532433        -0.342188        -0.893233
 H         2.080239         1.111251        -0.043485
 H         1.971255        -0.332268         0.837282
 H        -2.973404         1.042375         0.443236
 H        -2.955783        -1.682232         0.467211
 H        -3.090728        -1.280659        -1.444679
 H        -5.439639        -0.416734        -1.877858
 H        -4.985153         0.920568        -0.564401
 H        -4.331705         0.838466        -3.639603
 H        -3.965295         2.215371        -2.587082
