19
Iteration:  2798charge 0 multiplicity 1
 C         1.513188        -0.275027        -0.260894
 C         0.092561         0.050825         0.001069
 C        -1.116843         0.262488         0.185846
 C        -2.496584         0.750109         0.051635
 O        -3.340023         0.666084         1.241698
 C        -3.259399        -0.234012        -0.899810
 C        -4.627502         0.308426        -1.355154
 C        -3.941612         0.190956        -2.760002
 O        -2.793912        -0.462467        -2.300135
 H         2.076819         0.472292         0.341145
 H         1.849418        -1.325595        -0.360244
 H         1.671642         0.122356        -1.189407
 H        -2.383786         1.761051        -0.539926
 H        -4.081309         1.304291         1.197798
 H        -3.371859        -1.230272        -0.486110
 H        -5.463566        -0.364849        -1.230511
 H        -4.974526         1.226086        -0.990597
 H        -4.466780        -0.408907        -3.585545
 H        -3.767879         1.286130        -3.226793
