19
Iteration:   604charge 0 multiplicity 1
 C         1.610625        -0.046694         0.469325
 C         0.195489         0.033355         0.109833
 C        -1.018076         0.108287         0.024829
 C        -2.494093         0.161226        -0.020187
 O        -3.246211        -0.492196         1.014021
 C        -3.118582        -0.215911        -1.439200
 C        -4.589040         0.038040        -1.378434
 C        -4.410910         1.047849        -2.538760
 O        -2.994300         0.726533        -2.522283
 H         2.015338         0.948485         0.820134
 H         1.761991        -0.714612         1.275618
 H         2.212861        -0.374023        -0.291188
 H        -2.592942         1.248044         0.038488
 H        -2.625786        -0.946308         1.672762
 H        -2.733388        -1.160768        -1.829209
 H        -5.231087        -0.821730        -1.649050
 H        -4.842332         0.335034        -0.374194
 H        -4.798173         0.915620        -3.511576
 H        -4.524885         2.062616        -2.236126
