19
Iteration:  3297charge 0 multiplicity 1
 C         1.518483        -0.314467        -0.031769
 C         0.121813         0.131232         0.164737
 C        -1.063671         0.386954         0.142540
 C        -2.430670         0.733498        -0.184017
 O        -3.135183         1.021529         1.169422
 C        -3.172392        -0.373838        -1.008661
 C        -4.655307         0.205992        -1.281561
 C        -4.280913        -0.057609        -2.696813
 O        -2.899500        -0.503507        -2.396296
 H         1.589837        -0.458152        -1.116789
 H         2.299834         0.504726         0.058417
 H         1.717177        -1.279211         0.618161
 H        -2.456859         1.673999        -0.800052
 H        -3.598627         1.919476         1.073779
 H        -3.252135        -1.383495        -0.409352
 H        -5.483542        -0.305055        -0.838098
 H        -4.722308         1.271207        -1.146769
 H        -4.771175        -0.825358        -3.187807
 H        -4.302552         0.809119        -3.337304
