19
Iteration:  1993
 C         1.633436        -0.323492         0.216307
 C         0.183569         0.068573         0.198921
 C        -1.066989         0.213914         0.027308
 C        -2.501763         0.503296        -0.030696
 O        -3.203196         0.246179         1.232368
 C        -3.174513        -0.255595        -1.241039
 C        -4.694890        -0.044073        -1.345482
 C        -4.333158         0.506355        -2.786199
 O        -2.897355         0.346735        -2.514492
 H         1.824975        -0.709900        -0.822397
 H         2.331160         0.596462         0.469787
 H         1.955137        -0.965845         1.085984
 H        -2.596274         1.510630        -0.362358
 H        -3.024656         1.027404         1.869220
 H        -2.775894        -1.276747        -1.234237
 H        -5.225076        -0.987606        -1.470251
 H        -5.230840         0.485183        -0.550350
 H        -4.700928         0.004993        -3.620796
 H        -4.591869         1.563685        -2.794907
