19
Iteration:  1750charge 0 multiplicity 1
 C         1.521936        -0.186044         0.098256
 C         0.085687         0.112184         0.087812
 C        -1.092027         0.138621         0.134788
 C        -2.502395         0.377743         0.116673
 O        -3.277761        -0.115468         1.236587
 C        -3.183324        -0.190913        -1.164673
 C        -4.680869         0.093323        -1.429161
 C        -4.197891         0.573326        -2.836569
 O        -2.779922         0.521292        -2.421896
 H         2.181151         0.642927         0.338167
 H         1.916789        -1.011410         0.718670
 H         1.884174        -0.438839        -0.929438
 H        -2.684411         1.574310        -0.093406
 H        -2.642422        -0.030645         1.900673
 H        -2.913352        -1.250586        -1.293546
 H        -5.352767        -0.790121        -1.450334
 H        -5.038976         1.021785        -0.997970
 H        -4.521506        -0.119612        -3.609940
 H        -4.416466         1.649984        -3.168693
