19
Iteration:  2790
 C         1.506489        -0.258107        -0.278622
 C         0.076602         0.050064         0.020571
 C        -1.100548         0.260767         0.230615
 C        -2.502842         0.743691         0.020198
 O        -3.256033         0.668238         1.196715
 C        -3.306408        -0.228018        -0.911167
 C        -4.680660         0.248457        -1.321292
 C        -3.974358         0.256241        -2.851494
 O        -2.787004        -0.463240        -2.244865
 H         2.145630         0.332567         0.367747
 H         1.945452        -1.246682         0.061312
 H         1.668373        -0.000032        -1.337552
 H        -2.363604         1.763064        -0.254363
 H        -4.129887         1.119421         0.991738
 H        -3.254908        -1.148361        -0.323745
 H        -5.543554        -0.468999        -1.274715
 H        -4.969891         1.309146        -1.024263
 H        -4.418174        -0.371441        -3.592469
 H        -3.699909         1.301635        -3.205114
