19
Iteration:   177charge 0 multiplicity 1
 C         1.585178        -0.054215         0.368736
 C         0.141638        -0.065267         0.078092
 C        -1.063539         0.053000        -0.017207
 C        -2.526640         0.037600        -0.005996
 O        -2.974225        -0.893297         1.006587
 C        -3.144006        -0.098787        -1.401810
 C        -4.779403         0.143732        -1.460723
 C        -4.318187         1.241559        -2.465679
 O        -2.917624         1.013489        -2.321882
 H         2.210588         0.495202        -0.434414
 H         1.761851         0.408631         1.359391
 H         1.974873        -1.000702         0.357676
 H        -2.870588         1.039008         0.258649
 H        -3.811907        -1.257290         0.697016
 H        -2.812441        -1.057667        -1.850725
 H        -5.463989        -0.667002        -1.832446
 H        -5.215765         0.512168        -0.558223
 H        -4.636196         1.076998        -3.487697
 H        -4.688327         2.188273        -2.083780
