19
Iteration:  1480
 C         1.558696        -0.009080        -0.085116
 C         0.105881         0.074968         0.124057
 C        -1.101704         0.287818         0.066833
 C        -2.678248         0.427148         0.180558
 O        -3.343911        -0.167543         1.312653
 C        -3.226928        -0.225234        -1.118080
 C        -4.654904         0.199874        -1.514171
 C        -3.954507         0.811613        -2.758662
 O        -2.785897         0.085407        -2.394963
 H         2.008118        -0.878525         0.495696
 H         1.641513        -0.394393        -1.103699
 H         2.120865         0.894577        -0.068969
 H        -2.885407         1.428723         0.324683
 H        -2.706057        -0.952712         1.516882
 H        -3.206582        -1.327414        -0.997259
 H        -5.381355        -0.569166        -1.819614
 H        -5.110760         0.718875        -0.642353
 H        -4.333767         0.464198        -3.781046
 H        -3.747350         1.877245        -2.813986
