19
Iteration:   658
 C         1.504976        -0.317911         0.318712
 C         0.128641         0.020784         0.348376
 C        -0.999490         0.443808         0.110283
 C        -2.484306         0.422308        -0.020866
 O        -3.081324        -0.425932         1.042978
 C        -3.097531        -0.158694        -1.308143
 C        -4.623649        -0.149873        -1.521870
 C        -4.470392         0.894521        -2.533200
 O        -2.945992         0.773990        -2.550426
 H         2.044186         0.051319         1.262454
 H         1.726552        -1.393817         0.116536
 H         1.935742         0.196866        -0.480215
 H        -2.752836         1.510909         0.065323
 H        -2.761582        -1.361023         0.878294
 H        -2.578424        -1.110376        -1.534881
 H        -4.923454        -1.075165        -2.054761
 H        -5.200555        -0.041767        -0.611633
 H        -4.772226         0.764191        -3.525247
 H        -4.872178         1.803015        -2.189838
