19
Iteration:   955
 C         1.424225         0.067554         0.038040
 C        -0.019359         0.213054        -0.134329
 C        -1.187911         0.428811         0.192013
 C        -2.570196         0.302465         0.184810
 O        -3.175539        -0.434025         1.211319
 C        -3.372240        -0.441638        -1.159538
 C        -4.628370         0.421542        -1.465602
 C        -3.778268         1.015793        -2.621516
 O        -2.827650        -0.099120        -2.481442
 H         1.992562         1.048371         0.177091
 H         1.456567        -0.577353         0.851942
 H         1.887251        -0.378731        -0.797204
 H        -2.938292         1.345177         0.208312
 H        -2.379642        -0.765999         1.661728
 H        -3.410624        -1.588343        -1.152796
 H        -5.503625        -0.251955        -1.648406
 H        -4.923783         1.236048        -0.737857
 H        -4.271774         1.096487        -3.626014
 H        -3.369559         2.007995        -2.495113
