19
Iteration:   324
 C         1.309015         0.119377        -0.397387
 C        -0.026551        -0.032682         0.222610
 C        -1.197291         0.002726         0.515827
 C        -2.632274         0.155736         0.282369
 O        -3.206737        -0.876192         1.070689
 C        -3.102053        -0.130656        -1.226302
 C        -4.602843         0.084907        -1.657800
 C        -3.953144         1.069039        -2.698086
 O        -2.644189         0.979316        -2.104979
 H         2.102035         0.074986         0.336106
 H         1.521837        -0.645042        -1.150140
 H         1.335761         1.190278        -0.913569
 H        -2.832520         1.205848         0.522557
 H        -3.932363        -1.235014         0.471108
 H        -2.475050        -1.026320        -1.399031
 H        -5.282634        -0.771612        -1.964754
 H        -5.241461         0.591213        -0.708390
 H        -3.819869         0.459990        -3.645893
 H        -4.383428         2.035236        -2.937382
