19
Iteration:   519charge 0 multiplicity 1
 C         1.472082         0.167782         0.332549
 C         0.050333         0.067249        -0.057910
 C        -1.146036         0.084877         0.088307
 C        -2.538256         0.131225        -0.008979
 O        -3.086357        -0.781064         1.073662
 C        -3.246240        -0.335171        -1.299040
 C        -4.702804         0.324055        -1.426225
 C        -4.132332         1.099858        -2.619238
 O        -2.810570         0.598594        -2.367133
 H         2.163668         0.556886        -0.528191
 H         1.488637         0.881354         1.131150
 H         1.853939        -0.839161         0.712606
 H        -3.020825         1.198951         0.119067
 H        -2.356680        -0.853939         1.645130
 H        -2.902676        -1.360925        -1.571893
 H        -5.454838        -0.328983        -1.819924
 H        -4.961660         0.739024        -0.499778
 H        -4.563631         0.936705        -3.666069
 H        -4.069292         2.248645        -2.418871
