19
Iteration:   629charge 0 multiplicity 1
 C         1.543271        -0.183894         0.419050
 C         0.135977         0.035759         0.233572
 C        -1.073277         0.207157         0.093191
 C        -2.526005         0.398894        -0.082924
 O        -3.195988        -0.449734         0.914540
 C        -3.072311        -0.174927        -1.381816
 C        -4.564731        -0.064792        -1.313650
 C        -4.383163         0.922906        -2.434350
 O        -2.954725         0.740908        -2.581533
 H         1.970252         0.619550         1.028514
 H         1.902566        -1.115577         0.718298
 H         2.034811        -0.108817        -0.597205
 H        -2.679249         1.463834         0.014871
 H        -2.729427        -1.368695         0.891081
 H        -2.578505        -1.098742        -1.731099
 H        -5.104772        -0.928261        -1.658344
 H        -4.823164         0.206267        -0.288438
 H        -4.771419         0.738519        -3.478843
 H        -4.626760         2.003945        -2.105915
