19
Iteration:  4189charge 0 multiplicity 1
 C         1.447291        -0.433921         0.104407
 C        -0.028297        -0.050556        -0.051590
 C        -1.085147         0.409196        -0.351446
 C        -2.435195         0.973617        -0.281563
 O        -2.865109         1.462097         1.006466
 C        -3.436202        -0.065050        -0.791570
 C        -4.734047         0.203289        -1.389443
 C        -4.156019        -0.539083        -2.615746
 O        -2.888959        -0.775554        -1.917637
 H         1.856478         0.452272         0.507134
 H         1.631690        -1.218601         0.781414
 H         1.873901        -0.481832        -0.924429
 H        -2.432735         1.900289        -0.905808
 H        -2.456284         2.356389         1.056467
 H        -3.287976        -0.810351         0.095376
 H        -5.553430        -0.257694        -0.835106
 H        -4.861878         1.288550        -1.536911
 H        -4.568188        -1.507934        -3.071876
 H        -4.095718         0.084418        -3.526871
