19
Iteration:   559
 C         1.527172         0.142627         0.449860
 C         0.125940        -0.065582         0.250356
 C        -0.998206        -0.078656        -0.252707
 C        -2.527878         0.166780        -0.068424
 O        -3.012114        -0.636475         1.089756
 C        -3.261768        -0.257525        -1.271890
 C        -4.793408         0.120421        -1.524698
 C        -4.228088         1.149422        -2.603517
 O        -2.932239         0.714376        -2.368737
 H         1.731758         1.038168        -0.140932
 H         1.924258         0.268494         1.474545
 H         2.074914        -0.633601         0.048776
 H        -2.459652         1.237855         0.066051
 H        -2.570356        -0.269234         1.958080
 H        -3.076212        -1.308188        -1.466497
 H        -5.410638        -0.740060        -1.914695
 H        -5.383759         0.663658        -0.749332
 H        -4.558862         0.907586        -3.582045
 H        -4.378923         2.199163        -2.457499
