19
Iteration:  4039
 C         1.438819        -0.429934        -0.079791
 C         0.059457         0.111762        -0.172760
 C        -1.152139         0.275167        -0.076783
 C        -2.541769         0.867779        -0.272352
 O        -2.862653         1.623735         0.926207
 C        -3.552257        -0.198320        -0.635587
 C        -4.778753         0.111387        -1.436516
 C        -3.959816        -0.363269        -2.744060
 O        -2.859742        -0.724131        -1.785041
 H         1.936575        -0.819289        -1.025718
 H         2.046278         0.253233         0.585121
 H         1.324279        -1.279056         0.576022
 H        -2.571220         1.521902        -1.216238
 H        -2.030033         1.558406         1.500119
 H        -3.755429        -0.983366         0.169377
 H        -5.680220        -0.478553        -1.246817
 H        -5.050544         1.168148        -1.381894
 H        -4.342289        -1.323075        -3.121815
 H        -3.573105         0.269906        -3.542219
