19
Iteration:  1155
 C         1.374080        -0.450724         0.017463
 C         0.012382         0.111235         0.271024
 C        -1.118760         0.567809         0.193386
 C        -2.553079         0.550138         0.109989
 O        -3.106927        -0.300970         1.159895
 C        -3.093479        -0.054564        -1.164165
 C        -4.633157        -0.125914        -1.467040
 C        -4.194680         0.533073        -2.806731
 O        -2.808622         0.709093        -2.412515
 H         1.227132        -1.420676        -0.448753
 H         1.796548         0.169333        -0.733792
 H         2.162620        -0.397485         0.816689
 H        -3.014851         1.489454         0.237031
 H        -2.449743        -0.981244         1.351766
 H        -2.572873        -1.027454        -1.410917
 H        -5.222393        -1.005701        -1.363198
 H        -5.106804         0.627751        -0.836176
 H        -4.176301        -0.231802        -3.659928
 H        -4.606759         1.453221        -3.219369
