19
Iteration:  1016charge 0 multiplicity 1
 C         1.505392         0.183319        -0.078592
 C         0.050867         0.096407         0.075544
 C        -1.172293        -0.027376         0.153650
 C        -2.628462         0.215487         0.108367
 O        -3.181480        -0.144862         1.366067
 C        -3.400169        -0.412161        -1.169666
 C        -4.716948         0.276335        -1.590241
 C        -3.849779         1.010848        -2.697262
 O        -2.719545         0.146631        -2.341219
 H         2.021769         0.546875         0.792244
 H         2.021545        -0.816245        -0.436551
 H         1.644877         0.826645        -1.000381
 H        -2.842598         1.233718        -0.261509
 H        -2.843649        -0.953719         1.705366
 H        -3.438990        -1.465487        -1.181244
 H        -5.321669        -0.523060        -1.971662
 H        -5.369550         0.835508        -0.941775
 H        -4.337079         0.804958        -3.647849
 H        -3.672628         2.112501        -2.531681
