19
Iteration:  1384
 C         1.547572        -0.150948         0.395475
 C         0.044914        -0.031445         0.098609
 C        -1.152331         0.251900        -0.079694
 C        -2.553352         0.460822        -0.061509
 O        -2.892912        -0.158242         1.153131
 C        -3.268494        -0.258286        -1.259912
 C        -4.755605         0.007289        -1.519736
 C        -4.283524         0.877208        -2.578000
 O        -2.866372         0.345544        -2.443616
 H         1.755821         0.603389         1.248316
 H         1.710249        -1.073911         0.815879
 H         2.200937        -0.094545        -0.527050
 H        -2.875442         1.617052         0.021057
 H        -2.143630         0.028095         1.805375
 H        -2.996003        -1.342781        -1.253499
 H        -5.217448        -0.901703        -1.878371
 H        -5.476089         0.523686        -0.905406
 H        -4.636977         0.535125        -3.553683
 H        -4.213741         1.982463        -2.547219
