19
Iteration:  2148charge 0 multiplicity 1
 C         1.358099        -0.193074        -0.209291
 C        -0.074461         0.094601        -0.089558
 C        -1.155352         0.485530         0.224785
 C        -2.627196         0.586593         0.168202
 O        -3.156799        -0.021231         1.370622
 C        -3.299693        -0.185286        -0.973296
 C        -4.580087         0.447433        -1.485231
 C        -3.934767         0.272258        -2.923124
 O        -2.658063        -0.009272        -2.325659
 H         1.905557         0.377859         0.568850
 H         1.399534        -1.211205         0.285820
 H         1.785362        -0.207293        -1.166337
 H        -2.970164         1.698259        -0.021062
 H        -2.454833        -0.108611         1.997499
 H        -3.542439        -1.210716        -0.550636
 H        -5.539079        -0.081152        -1.360854
 H        -4.651500         1.513698        -1.326873
 H        -4.169465        -0.732120        -3.481574
 H        -4.052429         1.106768        -3.674915
