19
Iteration:  2681charge 0 multiplicity 1
 C         1.458563        -0.353193         0.184257
 C         0.094039         0.059132        -0.030915
 C        -1.038519         0.487441        -0.243596
 C        -2.456080         0.709839        -0.037871
 O        -2.964518         0.586440         1.325388
 C        -3.305811        -0.289216        -1.041339
 C        -4.742855         0.045258        -1.305511
 C        -4.193652         0.373715        -2.791982
 O        -2.881174        -0.283451        -2.398383
 H         2.071089        -0.615224        -0.675851
 H         1.916596         0.427824         0.809148
 H         1.401395        -1.172841         0.993724
 H        -2.587424         1.845988        -0.283604
 H        -3.708324         1.155667         1.367648
 H        -3.068410        -1.257653        -0.562492
 H        -5.305044        -0.924002        -1.391810
 H        -5.418732         0.786896        -0.767180
 H        -4.567039        -0.131325        -3.644064
 H        -4.073035         1.397615        -2.948150
