19
Iteration:  2458charge 0 multiplicity 1
 C         1.438562        -0.414355         0.263198
 C         0.093288         0.031849         0.146379
 C        -0.972872         0.595857         0.052414
 C        -2.428405         0.792565        -0.239534
 O        -3.026275         0.319953         1.054327
 C        -3.125198        -0.212278        -1.101762
 C        -4.654253        -0.021397        -1.163089
 C        -4.372469         0.194502        -2.697064
 O        -2.922230         0.111504        -2.505261
 H         2.304406         0.280994         0.444947
 H         1.324229        -1.365605         0.942421
 H         1.724963        -0.829380        -0.694709
 H        -2.829667         1.786970        -0.511765
 H        -3.688656         0.917932         1.355376
 H        -2.675048        -1.199966        -0.925232
 H        -5.354632        -0.820166        -0.948439
 H        -4.940354         0.906624        -0.671822
 H        -4.895898        -0.543617        -3.307452
 H        -4.618230         1.129159        -3.072541
