19
Iteration:    61
 C         1.490546        -0.088583         0.451614
 C         0.116017         0.011650         0.033107
 C        -1.067908         0.054969        -0.203846
 C        -2.572784         0.077742        -0.105328
 O        -2.881884        -0.965479         0.887890
 C        -3.228317        -0.116858        -1.398359
 C        -4.723311         0.122707        -1.463745
 C        -4.295711         1.329144        -2.197731
 O        -2.889430         0.961835        -2.285120
 H         1.990484        -1.088504         0.439257
 H         1.992853         0.441194        -0.410149
 H         1.853404         0.492031         1.463203
 H        -2.878085         1.095454         0.327982
 H        -3.761862        -0.840123         1.232784
 H        -2.926244        -1.095604        -1.822197
 H        -5.253543        -0.532072        -2.163357
 H        -5.401842         0.053712        -0.554136
 H        -4.625301         1.241472        -3.263256
 H        -4.351764         2.349152        -1.765965
