19
Iteration:  2626charge 0 multiplicity 1
 C         1.599826        -0.396466         0.292994
 C         0.192660         0.211051         0.173729
 C        -0.991905         0.406444        -0.097667
 C        -2.455816         0.694145        -0.185554
 O        -3.195155         0.532778         1.075756
 C        -3.210211        -0.339051        -1.035254
 C        -4.661257         0.136219        -1.171851
 C        -4.384062         0.238614        -2.732886
 O        -2.938129        -0.093902        -2.535346
 H         1.615041        -1.432137        -0.093481
 H         2.139422         0.159110        -0.475245
 H         2.088782        -0.589846         1.321236
 H        -2.588849         1.745414        -0.689538
 H        -2.580174         0.697988         1.800290
 H        -2.838561        -1.353802        -0.775811
 H        -5.419912        -0.681318        -1.030656
 H        -5.100533         1.070775        -0.670331
 H        -4.821588        -0.525871        -3.344582
 H        -4.527181         1.242977        -3.090691
