19
Iteration:  3100
 C         1.558488        -0.190307         0.318909
 C         0.138823         0.088927         0.295380
 C        -0.988621         0.345736        -0.016900
 C        -2.341948         0.710414        -0.312369
 O        -2.955354         0.955608         0.947286
 C        -3.222198        -0.363468        -1.064260
 C        -4.753933        -0.096936        -1.164504
 C        -4.488357         0.070733        -2.693813
 O        -3.011370        -0.207704        -2.476795
 H         2.033452         0.359524         1.062821
 H         1.641400        -1.222955         0.528674
 H         2.042160        -0.030570        -0.681402
 H        -2.473053         1.534705        -1.053294
 H        -2.395709         0.411659         1.564841
 H        -2.973991        -1.364417        -0.704571
 H        -5.519750        -0.858292        -0.888573
 H        -5.128573         0.789506        -0.647427
 H        -4.986573        -0.707819        -3.352127
 H        -4.688684         1.114546        -3.185137
