19
Iteration:  2793
 C         1.511843        -0.278038        -0.263649
 C         0.082944         0.057403         0.012038
 C        -1.108526         0.259733         0.214098
 C        -2.504770         0.756479         0.038487
 O        -3.288987         0.664598         1.209720
 C        -3.293450        -0.222447        -0.908615
 C        -4.659809         0.265801        -1.318552
 C        -3.955154         0.239966        -2.829323
 O        -2.787538        -0.468249        -2.268269
 H         2.108377         0.397427         0.368702
 H         1.965806        -1.273272        -0.092308
 H         1.661994         0.112102        -1.403439
 H        -2.319732         1.743680        -0.377696
 H        -4.127148         1.188201         1.073711
 H        -3.314487        -1.222700        -0.398776
 H        -5.533736        -0.420260        -1.279130
 H        -4.999018         1.324105        -0.999567
 H        -4.411952        -0.377406        -3.577488
 H        -3.772056         1.186596        -3.165489
