19
Iteration:  2576
 C         1.570192        -0.225649         0.275561
 C         0.144030        -0.166668         0.114491
 C        -1.017134         0.212676         0.042331
 C        -2.408886         0.702123        -0.093683
 O        -3.009932         0.727268         1.227343
 C        -3.205320        -0.194513        -1.205988
 C        -4.692132        -0.010852        -1.265866
 C        -4.435779         0.097347        -2.754350
 O        -2.987004         0.118032        -2.577273
 H         1.873915        -0.922783         1.076717
 H         2.120511        -0.342685        -0.673875
 H         1.796240         0.633968         0.887833
 H        -2.306297         1.751497        -0.373613
 H        -3.510695        -0.086353         1.387078
 H        -2.687701        -1.147745        -1.004158
 H        -5.450725        -0.697346        -0.922293
 H        -4.829708         0.973513        -0.860277
 H        -4.792623        -0.835262        -3.311139
 H        -4.810859         0.948089        -3.434583
