19
Iteration:  4198charge 0 multiplicity 1
 C         1.457999        -0.393169         0.161292
 C        -0.032805        -0.154110        -0.037510
 C        -1.084568         0.428843        -0.443510
 C        -2.408018         1.045052        -0.366165
 O        -2.840294         1.418070         1.041889
 C        -3.376050         0.000553        -0.776631
 C        -4.812370         0.160797        -1.415312
 C        -4.169919        -0.598603        -2.552202
 O        -2.888094        -0.718281        -1.943844
 H         1.855814         0.354078         0.773290
 H         1.693598        -1.311022         0.687714
 H         1.990675        -0.521451        -0.857952
 H        -2.525628         2.018923        -0.965860
 H        -2.611024         2.374943         1.159214
 H        -3.452357        -0.830121         0.090517
 H        -5.657877        -0.223854        -0.826003
 H        -5.028387         1.226374        -1.634514
 H        -4.465801        -1.598982        -2.951425
 H        -4.123249         0.203228        -3.349296
