19
Iteration:  1334
 C         1.668935        -0.167016         0.416246
 C         0.192960         0.005601         0.156865
 C        -1.009066         0.010877         0.085835
 C        -2.436286         0.359740        -0.147551
 O        -3.200926        -0.059713         1.006846
 C        -3.164725        -0.260333        -1.345176
 C        -4.725274        -0.054266        -1.297970
 C        -4.404920         0.770197        -2.584711
 O        -2.961101         0.641472        -2.527717
 H         2.118917         0.782968         0.457749
 H         1.803196        -0.597892         1.513514
 H         2.009805        -0.750685        -0.455014
 H        -2.571401         1.403944        -0.230236
 H        -2.788995         0.259444         1.779175
 H        -2.923010        -1.331550        -1.518753
 H        -5.333817        -0.971401        -1.470906
 H        -5.060868         0.514914        -0.403116
 H        -4.688758         0.280132        -3.560108
 H        -4.528312         1.885250        -2.665377
