19
Iteration:   149
 C         1.613064        -0.026847         0.450184
 C         0.191443         0.029550         0.073902
 C        -1.024212         0.051152        -0.053452
 C        -2.514098         0.065758        -0.105368
 O        -3.155915        -0.856869         0.807595
 C        -3.119777        -0.118794        -1.390690
 C        -4.645556         0.104048        -1.259184
 C        -4.345999         1.325983        -2.334942
 O        -2.975379         0.905394        -2.395543
 H         2.268032        -0.178620        -0.403047
 H         1.968129         0.708943         1.188468
 H         1.714243        -1.179788         0.905970
 H        -2.866781         1.124801         0.165718
 H        -3.601404        -1.601484         0.273398
 H        -2.789461        -1.131948        -1.712671
 H        -5.219992        -0.710505        -1.646275
 H        -4.778255         0.421264        -0.136127
 H        -4.836971         1.066056        -3.328758
 H        -4.704725         2.292288        -1.949813
