19
Iteration:   150
 C         1.605131        -0.028556         0.450504
 C         0.195572         0.025474         0.072954
 C        -1.019723         0.061226        -0.058852
 C        -2.510860         0.066573        -0.099954
 O        -3.160868        -0.865372         0.819172
 C        -3.125668        -0.126390        -1.395002
 C        -4.638002         0.109345        -1.268305
 C        -4.350741         1.326686        -2.344171
 O        -2.971279         0.909152        -2.391498
 H         2.309970        -0.162360        -0.450338
 H         1.959421         0.725540         1.212193
 H         1.734681        -1.196964         0.887159
 H        -2.878310         1.130605         0.187874
 H        -3.620119        -1.556379         0.306977
 H        -2.775589        -1.138752        -1.731863
 H        -5.240186        -0.725188        -1.630430
 H        -4.776174         0.405216        -0.143112
 H        -4.840333         1.056970        -3.304914
 H        -4.717057         2.305840        -1.947308
