19
Iteration:  3576charge 0 multiplicity 1
 C         1.474253        -0.098577        -0.228308
 C         0.064224         0.027819         0.050823
 C        -1.132097         0.195181         0.120628
 C        -2.478727         0.719169        -0.113793
 O        -3.106692         1.182678         1.087740
 C        -3.384476        -0.275061        -0.770867
 C        -4.675648         0.292283        -1.433491
 C        -4.073472        -0.291272        -2.751576
 O        -2.814866        -0.611013        -2.106487
 H         1.675723        -1.190184        -0.314435
 H         1.827786         0.334948        -1.157826
 H         1.941371         0.456582         0.643961
 H        -2.356456         1.625182        -0.810378
 H        -2.591928         1.933355         1.399495
 H        -3.563043        -1.051392        -0.093499
 H        -5.693129         0.013540        -1.063661
 H        -4.723473         1.419936        -1.422856
 H        -4.528324        -1.153852        -3.207139
 H        -3.865521         0.382346        -3.610081
