19
Iteration:  1549charge 0 multiplicity 1
 C         1.432478         0.172665        -0.346174
 C        -0.010929        -0.054255        -0.017660
 C        -1.228415        -0.114609         0.168478
 C        -2.642260         0.222427         0.200370
 O        -3.469266        -0.022750         1.393448
 C        -3.232303        -0.318193        -1.097927
 C        -4.591761         0.280799        -1.473706
 C        -3.820982         0.628795        -2.826489
 O        -2.522786         0.326735        -2.194191
 H         1.796588        -0.702684        -0.921208
 H         1.553276         0.974423        -1.017625
 H         2.109635         0.578340         0.509098
 H        -2.632695         1.319514        -0.026709
 H        -3.378634         0.738655         2.023635
 H        -2.917918        -1.414987        -1.297683
 H        -5.452997        -0.386457        -1.445712
 H        -4.918317         1.207497        -1.023975
 H        -4.149468        -0.003032        -3.707859
 H        -4.099339         1.751955        -3.012909
