19
Iteration:  3922charge 0 multiplicity 1
 C         1.405546        -0.518892         0.235089
 C         0.183276         0.232856         0.031688
 C        -0.982035         0.464259        -0.190317
 C        -2.390642         0.961572        -0.316626
 O        -3.001323         1.412773         0.941905
 C        -3.205555        -0.170784        -0.863246
 C        -4.709263         0.096175        -1.244983
 C        -4.362308        -0.627963        -2.560122
 O        -2.982965        -0.539604        -2.283446
 H         1.156393        -1.455164         0.709335
 H         1.874305        -0.796847        -0.735671
 H         2.243873        -0.086917         0.798505
 H        -2.364446         1.754444        -1.134912
 H        -2.507792         2.153247         1.273613
 H        -3.072284        -1.030787        -0.203256
 H        -5.399184        -0.354975        -0.499226
 H        -4.978268         1.160193        -1.341343
 H        -4.820789        -1.626712        -2.456770
 H        -4.740420        -0.155210        -3.521353
