19
Iteration:  2139charge 0 multiplicity 1
 C         1.331869        -0.229500        -0.155865
 C        -0.018618         0.137758        -0.082984
 C        -1.186581         0.464133         0.235161
 C        -2.592463         0.580950         0.150150
 O        -3.194964         0.005044         1.314535
 C        -3.275183        -0.144492        -1.015300
 C        -4.576497         0.445510        -1.481153
 C        -3.979109         0.227983        -2.894016
 O        -2.657976        -0.011114        -2.298389
 H         2.106964         0.600738         0.306137
 H         1.600961        -1.251503         0.281369
 H         1.578181        -0.223000        -1.241573
 H        -2.835912         1.676424         0.229499
 H        -2.465777        -0.377815         1.799423
 H        -3.256427        -1.244186        -0.688120
 H        -5.572805        -0.095821        -1.389500
 H        -4.741262         1.480824        -1.113266
 H        -4.462165        -0.601192        -3.400862
 H        -3.837867         1.099563        -3.574171
