19
Iteration:  1460charge 0 multiplicity 1
 C         1.448880        -0.145985        -0.013407
 C         0.065152         0.241267         0.105540
 C        -1.142922         0.384247         0.131655
 C        -2.594848         0.394960         0.044571
 O        -3.155665        -0.180612         1.263198
 C        -3.277901        -0.345967        -1.109117
 C        -4.686725         0.258649        -1.461725
 C        -4.039376         0.795096        -2.678880
 O        -2.723268         0.087328        -2.471248
 H         1.689591        -0.573412         1.028680
 H         1.690196        -0.716523        -0.825136
 H         2.056006         0.811933        -0.132489
 H        -2.943117         1.356304         0.121842
 H        -3.001419        -1.134954         1.175407
 H        -3.030936        -1.433032        -1.061893
 H        -5.382204        -0.557498        -1.677787
 H        -5.184193         0.902820        -0.736157
 H        -4.400989         0.689166        -3.754844
 H        -3.786798         1.912916        -2.499633
