19
Iteration:  3604charge 0 multiplicity 1
 C         1.557840        -0.130705        -0.044600
 C         0.127274         0.071194        -0.100765
 C        -1.059102         0.336488         0.119275
 C        -2.446353         0.656844        -0.137482
 O        -3.207653         1.247354         0.944178
 C        -3.304726        -0.414093        -0.795025
 C        -4.668431         0.329532        -1.296848
 C        -4.176814        -0.197507        -2.696790
 O        -2.901686        -0.671685        -2.209653
 H         1.804215        -1.109887        -0.452490
 H         2.300694         0.629219        -0.473623
 H         1.673657        -0.031571         1.052794
 H        -2.501042         1.419608        -0.928387
 H        -2.477267         1.292894         1.629198
 H        -3.425388        -1.294876         0.011307
 H        -5.665326         0.009052        -0.967677
 H        -4.457115         1.388777        -1.148666
 H        -4.907407        -1.093993        -2.979886
 H        -4.049087         0.518047        -3.540128
