19
Iteration:  2727charge 0 multiplicity 1
 C         1.400125        -0.285660         0.071066
 C         0.017164         0.040235        -0.115749
 C        -1.159944         0.314802        -0.136555
 C        -2.536282         0.599316        -0.058835
 O        -2.944604         0.792931         1.318575
 C        -3.318848        -0.367003        -0.899116
 C        -4.734702         0.086460        -1.395657
 C        -4.003832         0.377798        -2.758657
 O        -2.778181        -0.252443        -2.299450
 H         1.796809         0.459597        -0.603481
 H         1.785767        -0.254390         1.087005
 H         1.734580        -1.371609        -0.323400
 H        -2.843752         1.671482        -0.466457
 H        -3.841556         0.406173         1.363224
 H        -3.182891        -1.422767        -0.479332
 H        -5.509271        -0.722789        -1.387105
 H        -5.202014         0.966344        -0.799262
 H        -4.418080        -0.186284        -3.593917
 H        -3.798203         1.379192        -3.045814
