19
Iteration:  1406
 C         1.430762        -0.191458         0.370316
 C         0.063469         0.114707        -0.019329
 C        -1.078052         0.422339        -0.189265
 C        -2.533231         0.438185        -0.025514
 O        -3.032534        -0.215913         1.213556
 C        -3.299104        -0.294502        -1.113151
 C        -4.754505         0.026573        -1.447848
 C        -4.110834         0.912067        -2.643992
 O        -2.851312         0.235310        -2.472991
 H         1.743505         0.227162         1.395824
 H         1.591896        -1.203417         0.433878
 H         2.093181         0.222200        -0.471914
 H        -2.720085         1.497083         0.299622
 H        -2.288715        -0.618471         1.641994
 H        -2.886477        -1.303830        -1.189498
 H        -5.299234        -0.885771        -1.701040
 H        -5.347703         0.602497        -0.749982
 H        -4.404165         0.723960        -3.697378
 H        -4.057518         2.046978        -2.466161
