19
Iteration:  2259charge 0 multiplicity 1
 C         1.396290        -0.092825        -0.271310
 C        -0.011930         0.025944        -0.017590
 C        -1.192811         0.234780         0.258107
 C        -2.550387         0.543716         0.132375
 O        -3.203806         0.247015         1.366135
 C        -3.207875        -0.278392        -0.990313
 C        -4.513301         0.400457        -1.418499
 C        -3.971755         0.414316        -2.836968
 O        -2.724983        -0.168093        -2.344745
 H         1.788249        -1.076907        -0.057989
 H         1.757919        -0.065471        -1.286909
 H         1.841877         0.624718         0.366489
 H        -2.876526         1.611229        -0.116756
 H        -4.219861         0.320706         1.336552
 H        -3.385451        -1.343293        -0.767735
 H        -5.480422        -0.055500        -1.509258
 H        -4.730888         1.346533        -0.940223
 H        -4.585658        -0.234245        -3.677077
 H        -3.708606         1.379661        -3.410747
