19
Iteration:   657
 C         1.499695        -0.304679         0.322428
 C         0.129372         0.015893         0.351106
 C        -0.999008         0.434156         0.114035
 C        -2.486970         0.431365        -0.028175
 O        -3.080203        -0.424759         1.027128
 C        -3.091212        -0.164156        -1.297736
 C        -4.624247        -0.148629        -1.515636
 C        -4.481772         0.896901        -2.526841
 O        -2.943734         0.767638        -2.548496
 H         2.032810         0.064174         1.249816
 H         1.748674        -1.413645         0.119715
 H         1.966975         0.163067        -0.508300
 H        -2.760264         1.510870         0.057129
 H        -2.778905        -1.400606         0.874516
 H        -2.575469        -1.078019        -1.573878
 H        -4.927612        -1.085348        -2.041831
 H        -5.196035        -0.013503        -0.604408
 H        -4.731695         0.773953        -3.537761
 H        -4.839222         1.835024        -2.196509
