19
Iteration:  1571
 C         1.374087         0.119797        -0.392586
 C         0.026048        -0.042984        -0.027848
 C        -1.114852        -0.028715         0.360799
 C        -2.597055         0.308630         0.244603
 O        -3.412404        -0.119069         1.265578
 C        -3.321459        -0.241673        -1.014649
 C        -4.585319         0.288250        -1.582801
 C        -3.824101         0.600561        -2.820532
 O        -2.591918         0.316673        -2.194552
 H         1.630074        -0.539649        -1.224274
 H         1.505262         1.104530        -0.754787
 H         2.094036         0.120352         0.515240
 H        -2.616781         1.469010         0.236353
 H        -3.604466         0.606197         1.862714
 H        -3.121847        -1.344696        -0.826115
 H        -5.396945        -0.404374        -1.786367
 H        -4.975306         1.058561        -0.917231
 H        -4.126086        -0.202766        -3.587205
 H        -3.896966         1.665463        -3.311525
