19
Iteration:  1328
 C         1.641834        -0.187519         0.419029
 C         0.207746         0.009382         0.141857
 C        -1.039428         0.010543         0.145348
 C        -2.375632         0.379210        -0.150309
 O        -3.226275        -0.056184         0.945919
 C        -3.166854        -0.274014        -1.355195
 C        -4.675885        -0.058257        -1.293088
 C        -4.420021         0.759656        -2.587408
 O        -2.982118         0.645332        -2.491963
 H         2.199214         0.839133         0.302713
 H         1.804201        -0.508227         1.393713
 H         2.182252        -0.771157        -0.332445
 H        -2.388909         1.558073        -0.164031
 H        -2.880435         0.109304         1.869342
 H        -3.017430        -1.346357        -1.607999
 H        -5.191475        -1.013820        -1.318083
 H        -5.090890         0.650342        -0.561001
 H        -4.832149         0.296118        -3.514006
 H        -4.609077         1.851840        -2.658959
