19
Iteration:   582
 C         1.626680         0.060898         0.460376
 C         0.201737         0.005877         0.157846
 C        -1.019247        -0.075792        -0.006521
 C        -2.513960         0.194738        -0.099560
 O        -3.086933        -0.541241         0.994034
 C        -3.233329        -0.236337        -1.364880
 C        -4.823346         0.084645        -1.478524
 C        -4.380440         1.065737        -2.554817
 O        -2.877521         0.732649        -2.396069
 H         2.020218         1.113011         0.467786
 H         1.723004        -0.295396         1.449185
 H         2.226352        -0.550021        -0.066911
 H        -2.431608         1.238268        -0.074635
 H        -2.526982        -0.491949         1.772780
 H        -3.010664        -1.277032        -1.609174
 H        -5.410078        -0.742831        -1.929491
 H        -5.331146         0.471335        -0.591732
 H        -4.756284         0.909164        -3.547234
 H        -4.461959         2.113666        -2.288778
