19
Iteration:   313charge 0 multiplicity 1
 C         1.349019         0.082376        -0.363219
 C         0.008631        -0.058874         0.208521
 C        -1.153626         0.089869         0.536612
 C        -2.623427         0.163118         0.280966
 O        -3.276766        -0.892705         1.010945
 C        -3.037768        -0.052903        -1.190092
 C        -4.567017         0.122364        -1.627103
 C        -3.995952         0.989307        -2.684852
 O        -2.692936         0.966780        -2.123981
 H         2.182725         0.307588         0.275138
 H         1.566914        -0.747360        -1.023324
 H         1.229190         1.024673        -1.063245
 H        -3.094631         1.022153         0.728602
 H        -3.803562        -1.438604         0.497153
 H        -2.693238        -1.055362        -1.569631
 H        -5.031257        -0.739024        -2.184927
 H        -5.270652         0.609445        -0.760182
 H        -4.101810         0.533975        -3.726918
 H        -4.310501         2.027072        -2.737279
