19
Iteration:  1904charge 0 multiplicity 1
 C         1.408824        -0.333213         0.554013
 C         0.064124         0.067983         0.130142
 C        -1.082506         0.430766        -0.224695
 C        -2.476760         0.636620        -0.166251
 O        -2.843647         0.115082         1.171401
 C        -3.129773        -0.258180        -1.218099
 C        -4.668276        -0.116067        -1.344114
 C        -4.444784         0.644018        -2.617945
 O        -2.950274         0.314480        -2.619545
 H         1.215385        -1.363469         0.936686
 H         2.305247        -0.433023        -0.200840
 H         1.832111         0.179720         1.545779
 H        -2.789147         1.615252        -0.214587
 H        -2.653679        -0.895640         1.121995
 H        -2.718945        -1.260203        -1.098426
 H        -5.153579        -1.091923        -1.431609
 H        -5.042905         0.206923        -0.367307
 H        -4.877003         0.312582        -3.523456
 H        -4.552324         1.769417        -2.444196
