19
Iteration:  4835charge 0 multiplicity 1
 C         1.283641        -0.616783        -0.058012
 C        -0.014380         0.009496         0.086476
 C        -1.019157         0.665798        -0.146802
 C        -2.399493         1.055502        -0.468829
 O        -2.896469         1.794666         0.731079
 C        -3.221470        -0.214436        -0.655726
 C        -4.608107         0.122909        -1.263223
 C        -4.271756        -0.652235        -2.480337
 O        -2.913215        -0.909463        -1.896074
 H         1.379713        -1.139410        -1.079405
 H         2.047366         0.207551         0.096569
 H         1.341814        -1.478707         0.765541
 H        -2.320398         1.713715        -1.331921
 H        -3.280407         2.668291         0.521413
 H        -3.098521        -0.939383         0.166780
 H        -5.352980        -0.278436        -0.554523
 H        -4.871001         1.124591        -1.396884
 H        -4.791826        -1.606862        -2.718474
 H        -4.172984        -0.103009        -3.453895
