19
Iteration:   354
 C         1.354963         0.166589        -0.355144
 C        -0.065887         0.117765         0.061143
 C        -1.260252        -0.013046         0.194909
 C        -2.732621        -0.031396         0.289924
 O        -3.317817        -0.926757         1.247950
 C        -3.084717        -0.152793        -1.195117
 C        -4.529495         0.129866        -1.647336
 C        -3.859945         1.058071        -2.670220
 O        -2.589321         0.974911        -2.057154
 H         2.083586        -0.504975         0.302445
 H         1.522514        -0.112784        -1.381223
 H         1.730174         1.212008        -0.403516
 H        -2.925895         1.098140         0.399261
 H        -4.173964        -0.395982         1.445908
 H        -2.570014        -1.065573        -1.526280
 H        -5.010197        -0.703643        -2.054747
 H        -4.971942         0.675293        -0.907739
 H        -3.806736         0.471062        -3.590670
 H        -4.316912         1.999815        -2.919322
