19
Iteration:  1624
 C         1.272284        -0.101151        -0.373605
 C         0.001085         0.214177         0.075331
 C        -1.209163         0.416181         0.272290
 C        -2.694062         0.399098         0.226641
 O        -3.327925        -0.335070         1.308784
 C        -3.181523        -0.234831        -1.083832
 C        -4.577755         0.378372        -1.507838
 C        -3.853083         0.520237        -2.885364
 O        -2.539613         0.240929        -2.249946
 H         1.196199        -0.376201        -1.471857
 H         2.062651         0.511097        -0.020786
 H         1.612810        -1.043992         0.175438
 H        -3.088098         1.519474         0.352480
 H        -2.716548        -0.360161         2.046601
 H        -3.123585        -1.298633        -0.854789
 H        -5.418228        -0.325101        -1.447844
 H        -4.846981         1.273464        -0.929336
 H        -4.167029        -0.223687        -3.655918
 H        -3.813411         1.478086        -3.276987
