19
Iteration:  1492charge 0 multiplicity 1
 C         1.514685         0.031188        -0.193235
 C         0.078211         0.015837         0.097250
 C        -1.133108         0.182189         0.158183
 C        -2.577254         0.426174         0.164018
 O        -3.362682        -0.155778         1.305420
 C        -3.283264        -0.257830        -1.080585
 C        -4.697293         0.244540        -1.515562
 C        -3.958213         0.778506        -2.778772
 O        -2.692147         0.128468        -2.370372
 H         2.075678        -0.750384         0.435824
 H         1.758199        -0.016261        -1.201649
 H         1.874522         0.957737         0.290026
 H        -2.758120         1.424681         0.155640
 H        -2.844202        -0.719092         1.891579
 H        -2.976502        -1.290674        -0.867462
 H        -5.193834        -0.692168        -1.790751
 H        -5.352583         0.928900        -0.957415
 H        -4.302958         0.409344        -3.804985
 H        -3.825644         1.884820        -2.790222
