19
Iteration:  2024
 C         1.523767        -0.160684         0.114867
 C         0.079666        -0.188036         0.032515
 C        -1.103580         0.125215         0.149190
 C        -2.455899         0.490544        -0.008106
 O        -3.213291         0.366236         1.193134
 C        -3.198361        -0.257096        -1.134847
 C        -4.659911        -0.002138        -1.354835
 C        -4.216793         0.422373        -2.855936
 O        -2.858811         0.392855        -2.338408
 H         2.005911         0.095060        -0.794003
 H         1.666591         0.795451         0.664811
 H         2.037138        -1.079804         0.553042
 H        -2.414771         1.602599        -0.491260
 H        -2.654418         0.327989         1.933100
 H        -2.741782        -1.289670        -1.234944
 H        -5.234653        -0.887103        -1.514180
 H        -5.272258         0.678303        -0.768780
 H        -4.411354        -0.234705        -3.786210
 H        -4.551043         1.447925        -3.016957
