19
Iteration:  1640charge 0 multiplicity 1
 C         1.314041        -0.260183        -0.304004
 C        -0.066185         0.361411         0.042054
 C        -1.294777         0.469325         0.278164
 C        -2.663307         0.418190         0.211314
 O        -3.203695        -0.336050         1.285575
 C        -3.296448        -0.239376        -1.020449
 C        -4.591838         0.302833        -1.543363
 C        -3.825301         0.532635        -2.826538
 O        -2.552025         0.270577        -2.241177
 H         1.419483        -0.076518        -1.342642
 H         2.167454         0.443783         0.052998
 H         1.394792        -1.299667        -0.055259
 H        -3.074866         1.490446         0.090214
 H        -2.416979        -0.741057         1.796412
 H        -3.338559        -1.387133        -1.048004
 H        -5.532875        -0.254232        -1.486601
 H        -4.826010         1.326388        -1.195397
 H        -3.854992        -0.278768        -3.580692
 H        -3.850674         1.562412        -3.437946
