19
Iteration:    16charge 0 multiplicity 1
 C         1.517544        -0.060076         0.208794
 C         0.076940         0.081115        -0.123743
 C        -1.116383         0.022898         0.100971
 C        -2.584465         0.036639         0.029119
 O        -3.051886        -0.982351         0.946838
 C        -3.173107        -0.161591        -1.391236
 C        -4.703033         0.103088        -1.459293
 C        -4.263917         1.344339        -2.344732
 O        -2.767072         1.083761        -2.177573
 H         1.511341        -0.755881         1.036836
 H         2.229528        -0.489412        -0.512181
 H         1.925701         1.011886         0.683047
 H        -2.985320         1.046329         0.397080
 H        -3.203027        -1.731997         0.345376
 H        -2.834166        -1.108523        -1.871611
 H        -5.236715        -0.640659        -2.102612
 H        -5.305818         0.053251        -0.566860
 H        -4.592449         0.999308        -3.371818
 H        -4.532317         2.355120        -2.053992
