19
Iteration:  1217charge 0 multiplicity 1
 C         1.383798        -0.490202         0.334323
 C         0.119016         0.134729        -0.079479
 C        -1.052389         0.390259        -0.060927
 C        -2.520263         0.531929         0.035262
 O        -3.033029        -0.205090         1.331419
 C        -3.089653        -0.058623        -1.217467
 C        -4.641471        -0.206806        -1.532709
 C        -4.276109         0.494568        -2.877549
 O        -2.975726         0.902702        -2.272604
 H         2.045755        -1.027690        -0.479835
 H         2.027816         0.327430         0.613824
 H         1.167101        -1.193921         1.137967
 H        -2.810922         1.627745         0.241156
 H        -2.603827        -1.069093         1.438848
 H        -2.499889        -0.974509        -1.263586
 H        -5.133503        -1.225915        -1.516812
 H        -5.207590         0.627695        -1.035574
 H        -4.093628        -0.307618        -3.523566
 H        -4.919811         1.290348        -3.239287
