19
Iteration:  4688
 C         1.407137        -0.549717         0.012190
 C         0.087963        -0.004297        -0.248231
 C        -1.079768         0.415372        -0.151115
 C        -2.383396         1.011788        -0.244103
 O        -3.003905         1.780030         0.862297
 C        -3.403037        -0.002684        -0.693244
 C        -4.701882         0.245739        -1.474482
 C        -4.168718        -0.789527        -2.448716
 O        -2.851535        -0.851885        -1.870888
 H         1.411253        -1.075836         1.056619
 H         1.808023        -1.093375        -0.857383
 H         2.112170         0.256565        -0.132375
 H        -2.400840         1.792060        -1.028324
 H        -2.416671         1.875753         1.666650
 H        -3.652999        -0.754759         0.025857
 H        -5.727856        -0.011599        -1.189048
 H        -4.843183         1.246091        -1.984885
 H        -4.632310        -1.778919        -2.419945
 H        -4.157983        -0.450029        -3.491572
