19
Iteration:  1970
 C         1.523701        -0.360715         0.309920
 C         0.175439         0.161190         0.218703
 C        -0.963746         0.340831        -0.019018
 C        -2.409523         0.573562        -0.070067
 O        -3.172188         0.120928         1.103408
 C        -3.124744        -0.257439        -1.187610
 C        -4.658151        -0.076560        -1.307317
 C        -4.407999         0.598718        -2.683756
 O        -2.947646         0.257458        -2.585986
 H         1.421993        -1.155456        -0.444397
 H         2.457877         0.279725         0.147283
 H         1.703100        -0.808549         1.351329
 H        -2.554956         1.605424        -0.305645
 H        -3.198465         0.836033         1.742065
 H        -2.617487        -1.221035        -1.142138
 H        -5.340541        -0.894199        -1.428154
 H        -5.149345         0.582273        -0.597907
 H        -4.767647         0.100686        -3.546289
 H        -4.746630         1.627394        -2.666757
