19
Iteration:   651charge 0 multiplicity 1
 C         1.510718        -0.265398         0.330340
 C         0.111194        -0.000169         0.352417
 C        -1.014543         0.374123         0.127264
 C        -2.488002         0.457497        -0.053175
 O        -3.075087        -0.420251         0.952626
 C        -3.057080        -0.163952        -1.289904
 C        -4.622698        -0.171133        -1.472742
 C        -4.495992         0.932825        -2.512999
 O        -2.949440         0.734496        -2.520471
 H         2.023349         0.108363         1.217635
 H         1.736648        -1.294720         0.273749
 H         2.067456         0.078818        -0.604265
 H        -2.914485         1.463677         0.100430
 H        -2.865415        -1.313605         0.827989
 H        -2.515788        -1.067834        -1.687416
 H        -4.959440        -1.118480        -1.868136
 H        -5.213674         0.133136        -0.586365
 H        -4.709463         0.757256        -3.616110
 H        -4.673654         2.028832        -2.220331
