19
Iteration:  2374charge 0 multiplicity 1
 C         1.462343        -0.350445         0.167600
 C         0.070879        -0.010209        -0.052540
 C        -1.094828         0.419755        -0.212405
 C        -2.571575         0.695756        -0.007707
 O        -2.981147         0.476729         1.341175
 C        -3.276440        -0.331866        -1.017691
 C        -4.719633        -0.128679        -1.415662
 C        -4.134876         0.410461        -2.763728
 O        -2.774559         0.095783        -2.298194
 H         1.902420        -0.121584        -0.811037
 H         1.922277         0.390465         0.681519
 H         1.714069        -1.354363         0.559858
 H        -2.969040         1.684649        -0.495735
 H        -3.995463         0.621665         1.233632
 H        -2.936454        -1.342122        -0.762350
 H        -5.453121        -0.983327        -1.484713
 H        -5.273992         0.636483        -0.820394
 H        -4.520323         0.046999        -3.776796
 H        -4.206622         1.566721        -2.848366
