19
Iteration:  2559charge 0 multiplicity 1
 C         1.577912        -0.188418         0.317863
 C         0.138273        -0.166798         0.181922
 C        -1.008916         0.113958        -0.103232
 C        -2.374052         0.626744        -0.106538
 O        -3.021274         0.770897         1.266014
 C        -3.166513        -0.214791        -1.097870
 C        -4.720162         0.005302        -1.314757
 C        -4.427501         0.020993        -2.837775
 O        -3.008384         0.276881        -2.535201
 H         2.024950        -0.856762         1.127771
 H         1.877866        -0.732630        -0.654836
 H         2.027203         0.834547         0.334864
 H        -2.401379         1.657484        -0.656725
 H        -3.465664        -0.087472         1.530574
 H        -3.092056        -1.306004        -0.848842
 H        -5.233730        -0.842404        -0.804255
 H        -5.174027         0.964165        -0.932528
 H        -4.571105        -0.864564        -3.424660
 H        -4.834056         0.885943        -3.312869
