19
Iteration:  3357charge 0 multiplicity 1
 C         1.439733        -0.327277        -0.311716
 C         0.016769         0.028318        -0.124866
 C        -1.129249         0.303822         0.160268
 C        -2.495669         0.849511         0.048668
 O        -3.279243         1.026741         1.220986
 C        -3.236705        -0.177757        -0.808999
 C        -4.646490         0.282202        -1.502785
 C        -4.009430        -0.320922        -2.786823
 O        -2.720870        -0.434725        -2.119100
 H         1.976821         0.316657        -1.065794
 H         1.832659        -0.283288         0.694217
 H         1.575889        -1.330343        -0.678746
 H        -2.435414         1.800386        -0.442896
 H        -3.204090         1.963044         1.592369
 H        -3.321372        -1.004436        -0.151141
 H        -5.483188        -0.321831        -1.052032
 H        -4.934351         1.382449        -1.518941
 H        -4.429184        -1.357868        -2.942826
 H        -3.934477         0.468139        -3.606206
