19
Iteration:   162
 C         1.589459        -0.087969         0.410368
 C         0.189082         0.001096         0.069549
 C        -1.006324         0.125106        -0.085425
 C        -2.470575         0.081436        -0.015654
 O        -3.151063        -0.912793         0.937593
 C        -3.148474        -0.185828        -1.468480
 C        -4.625047         0.155473        -1.372528
 C        -4.418324         1.237950        -2.355534
 O        -2.926458         0.969598        -2.357406
 H         2.250709         0.350477        -0.452941
 H         1.768780         0.689118         1.242755
 H         1.945273        -1.138423         0.875337
 H        -2.803661         1.093346         0.419652
 H        -3.787651        -1.351545         0.394543
 H        -2.827662        -1.128353        -1.987883
 H        -5.390655        -0.598170        -1.661324
 H        -4.987327         0.525433        -0.355208
 H        -4.870238         1.143206        -3.341944
 H        -4.461259         2.328834        -2.083788
