19
Iteration:   159charge 0 multiplicity 1
 C         1.591481        -0.074047         0.419131
 C         0.199858         0.006016         0.069781
 C        -1.000823         0.120322        -0.086220
 C        -2.475321         0.089235        -0.029594
 O        -3.164445        -0.906623         0.914509
 C        -3.157883        -0.188947        -1.459103
 C        -4.607496         0.147486        -1.354236
 C        -4.408390         1.270108        -2.353591
 O        -2.932448         0.954051        -2.362532
 H         2.210824         0.200163        -0.356037
 H         1.803884         0.660625         1.176285
 H         1.900821        -1.095856         0.853273
 H        -2.814863         1.054358         0.394438
 H        -3.791983        -1.405536         0.377952
 H        -2.796171        -1.096757        -1.950634
 H        -5.336469        -0.602404        -1.555616
 H        -4.972261         0.428262        -0.299897
 H        -4.917066         1.094025        -3.367568
 H        -4.519803         2.314604        -2.059659
