19
Iteration:  1860
 C         1.582141        -0.258035         0.606751
 C         0.282162         0.036027         0.070360
 C        -0.934650         0.203235        -0.241956
 C        -2.530134         0.483143        -0.057137
 O        -3.004658         0.221794         1.237154
 C        -3.220357        -0.314213        -1.310189
 C        -4.754408        -0.166879        -1.437124
 C        -4.450270         0.689619        -2.713176
 O        -2.991285         0.455235        -2.477598
 H         1.551310        -0.791958         1.570797
 H         2.052366        -0.878651        -0.257107
 H         2.182245         0.736746         0.796585
 H        -2.641905         1.464699        -0.327397
 H        -2.590978        -0.658270         1.607528
 H        -2.889487        -1.323028        -1.429433
 H        -5.368234        -1.023957        -1.771792
 H        -5.414772         0.396454        -0.773556
 H        -4.952850         0.188951        -3.480994
 H        -4.773918         1.755391        -2.577618
