19
Iteration:   939
 C         1.451345         0.025762         0.054474
 C         0.025692         0.269007        -0.088164
 C        -1.198107         0.317460         0.136158
 C        -2.691183         0.301388         0.103680
 O        -3.088608        -0.464808         1.334349
 C        -3.359833        -0.280293        -1.142416
 C        -4.683796         0.417273        -1.522504
 C        -3.847411         0.972370        -2.670784
 O        -2.780479        -0.059813        -2.496414
 H         1.975251         0.929980        -0.124747
 H         1.761303        -0.240101         1.154028
 H         1.811950        -0.680348        -0.761794
 H        -3.225699         1.273525         0.234092
 H        -2.264383        -0.919430         1.755479
 H        -3.460879        -1.291794        -0.830199
 H        -5.414608        -0.228343        -1.968027
 H        -5.029243         1.045044        -0.735732
 H        -4.280773         1.001323        -3.671426
 H        -3.422766         1.963212        -2.377740
