19
Iteration:  3042charge 0 multiplicity 1
 C         1.536172        -0.222038         0.157435
 C         0.117212        -0.074678        -0.076577
 C        -1.006780         0.340541         0.053170
 C        -2.445108         0.667950        -0.084709
 O        -3.093034         1.030600         1.126635
 C        -3.220798        -0.240047        -0.964334
 C        -4.684546        -0.047753        -1.235085
 C        -4.269206        -0.108671        -2.745964
 O        -2.931221        -0.069716        -2.422175
 H         2.118596         0.767268        -0.084867
 H         1.729480        -0.364942         1.313458
 H         2.058818        -0.986363        -0.403475
 H        -2.500540         1.494923        -0.779643
 H        -3.680558         0.307995         1.436403
 H        -3.113986        -1.356881        -0.883789
 H        -5.288040        -0.921143        -1.030685
 H        -5.105736         0.934429        -1.022996
 H        -4.653643        -1.040975        -3.119793
 H        -4.586350         0.787448        -3.414269
