19
Iteration:  4648charge 0 multiplicity 1
 C         1.385458        -0.456073        -0.033041
 C         0.094548         0.084552         0.039060
 C        -1.026046         0.532570        -0.029184
 C        -2.373497         0.967623        -0.323051
 O        -3.022815         1.553218         0.729226
 C        -3.319805        -0.190205        -0.714461
 C        -4.581625         0.430188        -1.448912
 C        -4.285236        -0.686053        -2.418203
 O        -2.947887        -0.974667        -1.945722
 H         1.942005        -0.517387         0.852620
 H         1.229204        -1.447398        -0.547664
 H         2.126591         0.057354        -0.772932
 H        -2.235808         1.602346        -1.225319
 H        -2.456525         2.243785         1.029171
 H        -3.489701        -0.738521         0.254887
 H        -5.535502         0.480403        -0.862117
 H        -4.549274         1.488945        -1.766091
 H        -4.992112        -1.555991        -2.338392
 H        -4.324287        -0.299618        -3.490440
