19
Iteration:  3013
 C         1.477631        -0.298318         0.040889
 C         0.062300         0.051915         0.103895
 C        -1.097980         0.350532        -0.008167
 C        -2.489119         0.808136        -0.143159
 O        -3.191672         0.865218         1.171936
 C        -3.181037        -0.200189        -0.961305
 C        -4.590573         0.036004        -1.270448
 C        -4.217783        -0.174716        -2.714670
 O        -2.854899        -0.100809        -2.383972
 H         1.814809         0.211127        -0.792496
 H         2.068511        -0.040705         0.839047
 H         1.632981        -1.330880        -0.326443
 H        -2.576446         1.825432        -0.673031
 H        -2.534568         0.232394         1.653617
 H        -2.935209        -1.219733        -0.714189
 H        -5.434776        -0.560764        -0.836208
 H        -4.933614         1.108741        -1.166541
 H        -4.542605        -1.188088        -3.151014
 H        -4.470056         0.627894        -3.469875
