19
Iteration:  2110charge 0 multiplicity 1
 C         1.485829        -0.221132        -0.181127
 C         0.142900         0.186336         0.161020
 C        -1.117306         0.366418         0.119535
 C        -2.564807         0.545208         0.146098
 O        -3.325371         0.125104         1.350589
 C        -3.311485        -0.118980        -1.015988
 C        -4.580929         0.325544        -1.444608
 C        -4.051466         0.221962        -2.907671
 O        -2.699850         0.078770        -2.368826
 H         2.170189         0.538090        -0.360662
 H         1.787511        -0.956992         0.501531
 H         1.537560        -0.862958        -1.123205
 H        -2.715183         1.588517         0.341917
 H        -3.407742        -0.889788         1.179182
 H        -3.208548        -1.201452        -0.939546
 H        -5.517639        -0.231416        -1.341720
 H        -4.810605         1.313337        -0.987505
 H        -4.531797        -0.624273        -3.532114
 H        -4.021888         1.167431        -3.428190
