19
Iteration:  1809charge 0 multiplicity 1
 C         1.660880        -0.108843         0.243759
 C         0.129936        -0.150261         0.343489
 C        -1.017724         0.085704         0.086607
 C        -2.431978         0.484984        -0.112861
 O        -3.334865         0.037108         1.036309
 C        -3.068238        -0.254113        -1.315685
 C        -4.587646        -0.028563        -1.214894
 C        -4.378056         0.668565        -2.692500
 O        -2.972890         0.488674        -2.588851
 H         1.946213         0.215004         1.258753
 H         2.163386        -1.071506         0.007666
 H         1.959232         0.664908        -0.374816
 H        -2.456934         1.655907        -0.285541
 H        -2.903685         0.256331         1.913880
 H        -2.789569        -1.344974        -1.356805
 H        -5.251677        -0.879814        -1.079665
 H        -4.986095         0.710250        -0.503682
 H        -4.982096         0.012270        -3.380142
 H        -4.559836         1.755981        -2.897925
