19
Iteration:  2565
 C         1.580519        -0.188976         0.308426
 C         0.111874        -0.182674         0.172624
 C        -1.034743         0.150456        -0.069651
 C        -2.353407         0.628781        -0.136596
 O        -3.028956         0.768763         1.294999
 C        -3.126524        -0.188074        -1.114398
 C        -4.699293         0.021861        -1.300113
 C        -4.427878         0.029470        -2.820826
 O        -3.030724         0.203493        -2.539708
 H         1.859661        -0.982957         1.022878
 H         2.138793        -0.506524        -0.607528
 H         2.000236         0.796881         0.385941
 H        -2.414600         1.668290        -0.461884
 H        -3.464584        -0.054094         1.367038
 H        -2.917702        -1.276970        -1.126700
 H        -5.355677        -0.765713        -0.933270
 H        -5.124333         0.960473        -1.016168
 H        -4.558539        -0.872138        -3.490309
 H        -4.904156         1.003802        -3.168319
