19
Iteration:  2909charge 0 multiplicity 1
 C         1.342373        -0.331157        -0.101148
 C        -0.093902         0.039431        -0.178750
 C        -1.158235         0.571399         0.027968
 C        -2.550660         0.786823         0.025513
 O        -2.950441         0.646840         1.437618
 C        -3.323862        -0.168785        -0.855748
 C        -4.670895         0.254972        -1.562330
 C        -3.955164        -0.161032        -2.800754
 O        -2.728769        -0.210023        -2.193763
 H         1.487107        -1.436560        -0.281198
 H         1.869837         0.114074        -1.020101
 H         1.820030         0.067749         0.731285
 H        -2.907723         1.716504        -0.548824
 H        -3.698958         0.026035         1.506321
 H        -3.296825        -1.209574        -0.489218
 H        -5.655411        -0.211581        -1.460659
 H        -4.776016         1.323481        -1.522527
 H        -4.161613        -1.160152        -3.272020
 H        -3.968602         0.651098        -3.650614
