19
Iteration:  1302
 C         1.697090        -0.175968         0.381871
 C         0.212267        -0.113741         0.189038
 C        -1.000292         0.039770         0.157240
 C        -2.410444         0.414224        -0.067486
 O        -3.366888        -0.043663         0.958264
 C        -3.009236        -0.165871        -1.382411
 C        -4.596825        -0.063540        -1.249610
 C        -4.498846         0.669086        -2.581293
 O        -3.034945         0.729869        -2.605824
 H         2.224634         0.582179        -0.158525
 H         2.032140        -0.179202         1.525872
 H         2.157984        -1.089728        -0.030749
 H        -2.466294         1.516526         0.057756
 H        -2.925357        -0.466572         1.764513
 H        -2.632512        -1.207681        -1.611455
 H        -5.218625        -0.995336        -1.183198
 H        -4.922304         0.647565        -0.454662
 H        -4.847069        -0.004845        -3.505490
 H        -4.801565         1.739272        -2.898143
