19
Iteration:    83
 C         1.555951        -0.034587         0.411612
 C         0.144067        -0.096328         0.235689
 C        -1.029929         0.091397        -0.044104
 C        -2.445899         0.088829        -0.135392
 O        -2.877917        -0.970295         0.844016
 C        -3.258973        -0.243911        -1.446014
 C        -4.761627         0.111084        -1.517888
 C        -4.435938         1.448386        -2.242912
 O        -2.984110         0.936319        -2.417167
 H         2.085092        -1.020105         0.160213
 H         2.113276         0.796584        -0.103037
 H         1.895728        -0.093827         1.652812
 H        -2.784011         1.118426         0.272807
 H        -3.114305        -0.572619         1.748703
 H        -2.955392        -1.216876        -1.885235
 H        -5.569499        -0.528491        -1.884309
 H        -5.158217         0.394072        -0.449560
 H        -4.660371         1.661663        -3.332639
 H        -4.359608         2.367996        -1.634290
