19
Iteration:  2666charge 0 multiplicity 1
 C         1.498882        -0.373703         0.254427
 C         0.114938         0.123190         0.028268
 C        -1.069969         0.488697        -0.080789
 C        -2.525765         0.734735        -0.212433
 O        -2.924305         0.535502         1.329667
 C        -3.230767        -0.309311        -1.020727
 C        -4.713153         0.050136        -1.360757
 C        -4.232161         0.331384        -2.716434
 O        -2.951875        -0.240803        -2.495606
 H         1.781144        -0.954469        -0.695244
 H         2.333181         0.416331         0.412306
 H         1.551773        -1.097946         1.014739
 H        -2.859667         1.693777        -0.579569
 H        -3.423909         1.372027         1.592791
 H        -3.085807        -1.309648        -0.617910
 H        -5.401589        -0.761920        -1.251512
 H        -5.012030         0.880082        -0.772271
 H        -4.864861        -0.125219        -3.522892
 H        -4.186865         1.386684        -3.096575
