19
Iteration:  3772charge 0 multiplicity 1
 C         1.442909        -0.334107         0.544890
 C         0.089092         0.104359         0.212472
 C        -0.950896         0.521069        -0.177464
 C        -2.251099         0.979784        -0.502612
 O        -2.676283         1.270174         0.810420
 C        -3.078995        -0.266115        -1.103224
 C        -4.748696        -0.129894        -0.980162
 C        -4.651457        -0.254194        -2.479179
 O        -3.185954        -0.522101        -2.501700
 H         2.128105         0.493562         0.618456
 H         1.465319        -1.071708         1.306459
 H         1.767011        -1.086795        -0.313912
 H        -2.287992         1.749465        -1.293488
 H        -3.643991         1.442685         0.890646
 H        -2.735110        -1.263069        -0.582868
 H        -5.246478        -0.992557        -0.497908
 H        -4.991573         0.860430        -0.575333
 H        -5.076520        -1.276379        -2.931293
 H        -4.874237         0.502632        -3.223643
