19
Iteration:  3214
 C         1.376675        -0.223797         0.448683
 C         0.034179         0.076673         0.120115
 C        -1.071331         0.401253        -0.256628
 C        -2.449333         0.765283        -0.282992
 O        -2.538426         0.936088         1.065369
 C        -3.241045        -0.383154        -1.000004
 C        -4.805260        -0.036806        -1.197360
 C        -4.365240         0.102245        -2.647608
 O        -3.021618        -0.374394        -2.516005
 H         1.550416        -1.230011         0.802081
 H         2.062195         0.149266        -0.260638
 H         1.644767         0.362583         1.267155
 H        -2.607061         1.725558        -0.900004
 H        -3.448591         0.963172         1.354147
 H        -3.203465        -1.317160        -0.481659
 H        -5.544120        -0.794051        -0.906744
 H        -5.134090         0.949679        -0.721033
 H        -4.827390        -0.579257        -3.490283
 H        -4.349599         1.124185        -3.147290
