19
Iteration:  3101
 C         1.566090        -0.195508         0.320716
 C         0.135429         0.088614         0.301937
 C        -0.986337         0.349267        -0.022926
 C        -2.351082         0.716043        -0.308150
 O        -2.956217         0.951372         0.941487
 C        -3.223260        -0.375359        -1.062430
 C        -4.749774        -0.096457        -1.166748
 C        -4.480441         0.071078        -2.684029
 O        -3.021648        -0.207791        -2.489560
 H         2.019517         0.330875         1.057462
 H         1.629968        -1.194690         0.529570
 H         2.054612         0.008147        -0.661446
 H        -2.495461         1.566205        -1.049747
 H        -2.349942         0.440606         1.587689
 H        -2.959729        -1.326418        -0.682517
 H        -5.538197        -0.832006        -0.889813
 H        -5.079729         0.799701        -0.624228
 H        -4.995462        -0.719856        -3.354835
 H        -4.657823         1.110382        -3.163427
