19
Iteration:  4087charge 0 multiplicity 1
 C         1.427040        -0.332400        -0.182054
 C        -0.049634        -0.179626        -0.012245
 C        -1.069583         0.443746         0.040061
 C        -2.366346         0.974346        -0.287342
 O        -2.993881         1.648496         0.798390
 C        -3.370538        -0.298298        -0.644871
 C        -4.670218         0.252038        -1.398171
 C        -3.934592        -0.243502        -2.653712
 O        -3.007667        -1.013081        -1.830710
 H         1.432529         0.270977        -1.031934
 H         1.944063        -0.009308         0.686937
 H         1.851031        -1.272429        -0.554237
 H        -2.456046         1.567337        -1.138517
 H        -3.659703         1.112101         1.246924
 H        -3.377664        -0.953744         0.329090
 H        -5.542824        -0.409757        -1.269612
 H        -4.911759         1.313519        -1.187607
 H        -4.615146        -0.938735        -3.122174
 H        -3.322184         0.521347        -3.239833
