19
Iteration:  4941charge 0 multiplicity 1
 C         1.486175        -0.440008         0.275042
 C         0.119289         0.075720         0.098136
 C        -0.981545         0.530221        -0.250552
 C        -2.331582         0.895461        -0.555507
 O        -2.849706         1.804267         0.605309
 C        -3.280511        -0.286439        -0.765437
 C        -4.660984         0.281581        -1.159183
 C        -4.534984        -0.589770        -2.415996
 O        -3.109583        -1.001654        -2.044368
 H         2.208182         0.256374        -0.190314
 H         1.882573        -0.643529         1.332587
 H         1.669695        -1.369721        -0.204747
 H        -2.200076         1.537390        -1.447167
 H        -2.156416         1.785956         1.275948
 H        -3.060723        -1.078643        -0.017224
 H        -5.539611        -0.009345        -0.556197
 H        -4.755797         1.331802        -1.480691
 H        -5.114059        -1.496378        -2.577109
 H        -4.471615         0.015320        -3.307151
