19
Iteration:  2971charge 0 multiplicity 1
 C         1.438055        -0.479863        -0.094443
 C         0.122838         0.265690         0.025074
 C        -1.024281         0.656268         0.182358
 C        -2.519749         0.820053        -0.008757
 O        -3.075696         0.598089         1.255524
 C        -3.230267        -0.162017        -0.926851
 C        -4.707338         0.167117        -1.455238
 C        -4.159288        -0.238924        -2.863843
 O        -2.864773        -0.200212        -2.344503
 H         1.794469        -0.791283        -1.127458
 H         2.225498         0.175991         0.285589
 H         1.449650        -1.409099         0.608384
 H        -2.784068         1.837405        -0.385345
 H        -3.359418         1.401039         1.724233
 H        -3.254878        -1.143999        -0.361850
 H        -5.418810        -0.496574        -0.920239
 H        -4.939783         1.242490        -1.354586
 H        -4.428357        -1.234136        -3.254323
 H        -4.361495         0.480323        -3.555877
