19
Iteration:  1769charge 0 multiplicity 1
 C         1.606985        -0.167130         0.086843
 C         0.225747         0.078258         0.214902
 C        -1.031302         0.035145         0.340199
 C        -2.479507         0.449960         0.018909
 O        -3.309226        -0.078812         1.071574
 C        -3.188188        -0.214604        -1.236766
 C        -4.685046         0.128326        -1.355379
 C        -4.296265         0.589504        -2.810039
 O        -2.890535         0.483168        -2.474171
 H         2.091265         0.669429         0.668664
 H         1.712051        -1.145164         0.537956
 H         2.126033        -0.100403        -1.036527
 H        -2.658413         1.499357        -0.164913
 H        -3.019479         0.302049         1.892402
 H        -2.825786        -1.233008        -1.387267
 H        -5.253439        -0.800111        -1.431431
 H        -4.946780         0.744532        -0.478435
 H        -4.402175        -0.035714        -3.711248
 H        -4.554570         1.593930        -3.023324
