19
Iteration:   872
 C         1.442546         0.056856         0.050784
 C         0.006483        -0.014722        -0.057155
 C        -1.179599         0.162713         0.048792
 C        -2.636629         0.253035         0.158797
 O        -3.121848        -0.377945         1.423699
 C        -3.301930        -0.272522        -1.125249
 C        -4.660767         0.295162        -1.595715
 C        -4.047148         0.832976        -2.870902
 O        -2.690862         0.438167        -2.299459
 H         1.886589         0.382263        -0.855191
 H         1.797491         0.915583         0.674411
 H         2.034358        -0.893946         0.368286
 H        -2.710557         1.371883         0.203359
 H        -2.740346        -1.238653         1.450043
 H        -3.095026        -1.306263        -1.309468
 H        -5.468258        -0.455714        -1.557631
 H        -4.953061         1.153571        -0.998878
 H        -4.394013         0.194407        -3.676024
 H        -3.923087         1.900598        -3.058415
