19
Iteration:  2986charge 0 multiplicity 1
 C         1.441790        -0.400018        -0.030291
 C         0.133729         0.161510         0.090684
 C        -0.992726         0.593412         0.110055
 C        -2.434139         0.853831        -0.049409
 O        -3.184611         0.651805         1.290788
 C        -3.250566        -0.166262        -1.013387
 C        -4.713762         0.097563        -1.388565
 C        -4.258722        -0.210686        -2.790849
 O        -2.786885        -0.195120        -2.391239
 H         1.578569        -0.358220        -1.192316
 H         2.322405         0.111506         0.533332
 H         1.416385        -1.474654         0.123993
 H        -2.594928         1.838354        -0.436630
 H        -2.728252         1.441469         1.752468
 H        -3.036598        -1.211366        -0.675963
 H        -5.579679        -0.444964        -1.070177
 H        -5.064709         1.108924        -1.248117
 H        -4.575067        -1.194662        -3.108730
 H        -4.389938         0.491693        -3.670616
