19
Iteration:   896
 C         1.442999         0.061857         0.003383
 C        -0.005935         0.084848         0.160355
 C        -1.214595         0.183485        -0.080231
 C        -2.692918         0.288253         0.054488
 O        -2.965149        -0.375306         1.329915
 C        -3.433385        -0.296015        -1.148698
 C        -4.807458         0.353223        -1.567752
 C        -3.900855         0.857996        -2.754817
 O        -2.664743         0.277469        -2.228784
 H         1.869041         0.673712        -0.723087
 H         1.982468         0.492746         0.914976
 H         1.809785        -0.926105        -0.059942
 H        -2.735954         1.365111         0.130753
 H        -2.581294        -1.332828         1.221009
 H        -3.445347        -1.393654        -1.222944
 H        -5.471396        -0.470553        -1.769010
 H        -5.329266         1.175349        -1.131590
 H        -4.075810         0.424602        -3.698641
 H        -3.688561         1.900966        -2.737892
