19
Iteration:  2413
 C         1.358179        -0.508465         0.237227
 C         0.109855         0.294523         0.008137
 C        -1.070919         0.510619        -0.049223
 C        -2.486028         0.763693        -0.071744
 O        -2.918669         0.410098         1.341967
 C        -3.163020        -0.288538        -1.104887
 C        -4.679050        -0.098879        -1.320095
 C        -4.301838         0.386504        -2.762746
 O        -2.868954         0.000541        -2.551224
 H         2.176349        -0.090628        -0.423672
 H         1.617129        -0.497904         1.407029
 H         1.438767        -1.513253        -0.185684
 H        -2.715489         1.815426        -0.152805
 H        -3.861901         0.231927         1.289889
 H        -2.902889        -1.330814        -0.826295
 H        -5.177933        -1.029166        -1.114065
 H        -5.126397         0.704938        -0.731364
 H        -4.582675        -0.185690        -3.646747
 H        -4.547672         1.383792        -2.982401
