19
Iteration:  3247
 C         1.597631        -0.249741         0.387716
 C         0.180234        -0.030066        -0.053704
 C        -0.964245         0.320129        -0.347867
 C        -2.453024         0.779733        -0.182883
 O        -2.929883         0.996636         1.105059
 C        -3.324943        -0.273393        -0.880856
 C        -4.841487        -0.001204        -1.236247
 C        -4.297384         0.023684        -2.717783
 O        -2.962172        -0.343634        -2.372492
 H         2.093638        -1.172230         0.087190
 H         2.208864         0.485446        -0.046924
 H         1.441216        -0.170533         1.415129
 H        -2.481835         1.782715        -0.690778
 H        -3.839648         1.276348         0.991784
 H        -3.193856        -1.215267        -0.366048
 H        -5.533067        -0.809463        -0.922441
 H        -5.162797         0.985338        -0.773006
 H        -4.793040        -0.792084        -3.440459
 H        -4.308853         1.113854        -3.074928
