19
Iteration:  4222
 C         1.342266        -0.446715         0.291041
 C        -0.014388        -0.061745        -0.178289
 C        -1.028503         0.545330        -0.338706
 C        -2.350985         1.041246        -0.353797
 O        -2.707387         1.349235         0.976470
 C        -3.402546         0.010762        -0.791959
 C        -4.795371         0.145908        -1.405664
 C        -4.265400        -0.685141        -2.589556
 O        -2.928589        -0.617144        -1.990607
 H         1.480381         0.151145         1.146474
 H         1.537264        -1.476473         0.542249
 H         2.122519        -0.201128        -0.469895
 H        -2.431050         1.996009        -0.910553
 H        -2.483453         2.242724         1.119346
 H        -3.356553        -0.867699         0.011932
 H        -5.537075        -0.457564        -0.868304
 H        -5.166122         1.174654        -1.326419
 H        -4.572178        -1.758805        -2.441766
 H        -4.321993        -0.341824        -3.648644
