19
Iteration:  1076
 C         1.411151         0.034137        -0.109297
 C         0.030628        -0.125804        -0.059919
 C        -1.153384         0.041299         0.200182
 C        -2.533666         0.437649         0.103487
 O        -3.363927        -0.080898         1.191985
 C        -3.128646        -0.262317        -1.147821
 C        -4.668249         0.028771        -1.449039
 C        -4.025276         0.728049        -2.671645
 O        -2.651803         0.498663        -2.263749
 H         1.996065        -0.540009         0.723706
 H         1.864699        -0.210862        -1.024127
 H         1.633603         1.030212         0.231036
 H        -2.847221         1.459802         0.120126
 H        -3.067669        -0.931338         1.485947
 H        -2.921746        -1.372128        -1.310555
 H        -5.319483        -0.870785        -1.618622
 H        -5.122052         0.868274        -0.869918
 H        -4.099643         0.240240        -3.688261
 H        -4.149079         1.819251        -2.755221
