19
Iteration:  4939charge 0 multiplicity 1
 C         1.510681        -0.445445         0.256701
 C         0.105987         0.067435         0.089522
 C        -0.977263         0.519726        -0.226623
 C        -2.335111         0.882760        -0.543465
 O        -2.855765         1.825985         0.592224
 C        -3.258221        -0.290544        -0.756805
 C        -4.677942         0.267212        -1.151694
 C        -4.523247        -0.587276        -2.420684
 O        -3.113370        -0.982959        -2.038012
 H         2.252237         0.249511        -0.177502
 H         1.847220        -0.523253         1.407146
 H         1.581472        -1.419555        -0.275036
 H        -2.207363         1.530726        -1.442116
 H        -2.232992         1.713293         1.290475
 H        -3.098682        -1.075872        -0.064910
 H        -5.578614         0.019383        -0.588516
 H        -4.740087         1.344259        -1.534637
 H        -5.099302        -1.545127        -2.589996
 H        -4.451302         0.024725        -3.333837
