19
Iteration:   197
 C         1.543739        -0.062012         0.259729
 C         0.087245        -0.057849         0.153768
 C        -1.123744        -0.067888         0.006609
 C        -2.548082         0.153015         0.066591
 O        -2.831649        -0.923097         0.978741
 C        -3.226756        -0.094624        -1.321462
 C        -4.724157         0.125162        -1.587802
 C        -4.325094         1.255725        -2.594325
 O        -2.916575         1.005805        -2.167753
 H         1.959352         0.897844        -0.414115
 H         1.758169         0.112785         1.383856
 H         2.077546        -0.962035        -0.122623
 H        -2.792697         1.243851         0.355563
 H        -3.729879        -0.806833         1.166095
 H        -3.024528        -1.174420        -1.575332
 H        -5.176408        -0.671131        -2.260689
 H        -5.286670         0.442958        -0.764547
 H        -4.519895         0.977587        -3.601274
 H        -4.571801         2.344635        -2.407770
