19
Iteration:  2957
 C         1.363525        -0.433150        -0.079635
 C         0.095309         0.251272        -0.053377
 C        -1.053481         0.621727         0.023274
 C        -2.477600         0.868904         0.035760
 O        -3.076182         0.545885         1.329786
 C        -3.293196        -0.169178        -0.960468
 C        -4.687960         0.191113        -1.412600
 C        -4.188926        -0.217704        -2.837843
 O        -2.694238        -0.227196        -2.275596
 H         1.391020        -0.986407        -0.956736
 H         2.232334         0.154996        -0.018594
 H         1.314395        -1.076809         0.810575
 H        -2.676460         1.983049        -0.287544
 H        -3.786720         1.183585         1.432625
 H        -3.153356        -1.152803        -0.523397
 H        -5.620452        -0.349054        -1.089483
 H        -4.863698         1.332775        -1.394031
 H        -4.493520        -1.255653        -3.141627
 H        -4.185995         0.476666        -3.739587
