19
Iteration:   371
 C         1.387875         0.203870        -0.303320
 C        -0.046793         0.150172        -0.131701
 C        -1.193387         0.005590         0.243176
 C        -2.694329         0.051816         0.281008
 O        -3.399077        -0.925098         1.192235
 C        -3.147514        -0.216879        -1.230931
 C        -4.563396         0.148001        -1.646779
 C        -3.860617         1.006094        -2.726902
 O        -2.544847         0.921926        -1.948425
 H         1.733612        -0.639258         0.200608
 H         1.676733         0.033661        -1.396970
 H         1.845214         1.114597         0.110690
 H        -2.979862         1.019227         0.676383
 H        -3.667415        -0.446621         2.093558
 H        -2.792660        -1.232599        -1.545442
 H        -5.243991        -0.698194        -2.045421
 H        -5.273411         0.638172        -0.813032
 H        -3.804102         0.693561        -3.801601
 H        -4.062102         2.128415        -2.649108
