19
Iteration:  4821charge 0 multiplicity 1
 C         1.287626        -0.691676         0.019632
 C         0.061800         0.080766        -0.066211
 C        -1.014550         0.666869        -0.251894
 C        -2.382946         1.118817        -0.379897
 O        -3.017965         1.710890         0.748466
 C        -3.254546        -0.124669        -0.718914
 C        -4.679096         0.169561        -1.206427
 C        -4.162734        -0.674497        -2.449178
 O        -2.881503        -0.944184        -1.884363
 H         1.484331        -1.404464        -0.872725
 H         2.237642        -0.108451        -0.128216
 H         1.319385        -1.394281         0.895071
 H        -2.557162         1.769911        -1.260760
 H        -3.004900         2.678262         0.482918
 H        -3.310552        -0.720773         0.281877
 H        -5.502852        -0.348282        -0.724674
 H        -4.819384         1.263072        -1.333961
 H        -4.722094        -1.587712        -2.558319
 H        -4.084829        -0.182367        -3.436195
