19
Iteration:  3041charge 0 multiplicity 1
 C         1.528024        -0.222668         0.146304
 C         0.112775        -0.075413        -0.068809
 C        -1.012308         0.344451         0.055564
 C        -2.450694         0.670333        -0.082873
 O        -3.087120         1.026383         1.118376
 C        -3.220139        -0.240342        -0.960036
 C        -4.686858        -0.043108        -1.231902
 C        -4.271180        -0.105495        -2.745946
 O        -2.921746        -0.069839        -2.421574
 H         2.149181         0.777039        -0.108344
 H         1.699277        -0.346469         1.333459
 H         2.060560        -1.004775        -0.403007
 H        -2.491042         1.506395        -0.760324
 H        -3.668765         0.261112         1.427506
 H        -3.091198        -1.381123        -0.896241
 H        -5.287529        -0.907487        -1.014697
 H        -5.115916         0.936492        -1.030600
 H        -4.622270        -1.048874        -3.100972
 H        -4.572913         0.749922        -3.414595
