19
Iteration:  4342
 C         1.457612        -0.458798         0.304779
 C         0.105759         0.013180         0.005244
 C        -1.012091         0.451792        -0.028383
 C        -2.300463         0.866213        -0.436755
 O        -2.942517         1.736340         0.566049
 C        -3.176145        -0.296164        -0.885497
 C        -4.667142         0.035699        -0.995761
 C        -4.482820        -0.605121        -2.465708
 O        -3.079086        -0.540147        -2.274403
 H         1.580950        -1.402310         0.778640
 H         2.037332        -0.223448        -0.599965
 H         1.944250         0.373365         0.987102
 H        -2.196589         1.526005        -1.356120
 H        -2.591708         1.331332         1.445913
 H        -2.954483        -1.090719        -0.236764
 H        -5.356967        -0.456194        -0.305184
 H        -4.885033         1.116729        -0.928902
 H        -4.727008        -1.636640        -2.588058
 H        -4.696544         0.024632        -3.328320
