19
Iteration:   962charge 0 multiplicity 1
 C         1.420055         0.085570        -0.005325
 C        -0.005655         0.207579        -0.093714
 C        -1.163077         0.406246         0.139665
 C        -2.597271         0.330190         0.123359
 O        -3.210438        -0.441334         1.219151
 C        -3.318727        -0.421048        -1.171976
 C        -4.624383         0.431494        -1.422553
 C        -3.748872         0.988657        -2.636488
 O        -2.857943        -0.089524        -2.440479
 H         1.902149         0.963616         0.403707
 H         1.516789        -0.656817         0.932928
 H         1.898211        -0.265929        -0.938179
 H        -3.167961         1.255413         0.021997
 H        -2.602207        -0.858595         1.758586
 H        -3.248503        -1.477511        -0.989142
 H        -5.449617        -0.133395        -1.802741
 H        -4.839847         1.086658        -0.601973
 H        -4.318600         1.017896        -3.520448
 H        -3.238870         1.952545        -2.395140
