19
Iteration:   168
 C         1.611987        -0.080902         0.389997
 C         0.165708        -0.024042         0.073613
 C        -1.046280         0.110641        -0.065475
 C        -2.486201         0.052154         0.007263
 O        -3.079364        -0.912152         0.988855
 C        -3.110527        -0.142382        -1.462363
 C        -4.726330         0.146529        -1.408274
 C        -4.387024         1.204136        -2.381076
 O        -2.921945         1.002072        -2.346688
 H         2.141850         0.385214        -0.366981
 H         1.662583         0.522595         1.247759
 H         1.991932        -1.015889         0.646756
 H        -2.779974         1.037961         0.268533
 H        -3.789155        -1.277616         0.446021
 H        -2.917978        -1.121838        -1.895595
 H        -5.389996        -0.540675        -1.910959
 H        -4.962418         0.745155        -0.521888
 H        -4.768809         1.166334        -3.453748
 H        -4.507347         2.215486        -2.053576
