19
Iteration:  2513charge 0 multiplicity 1
 C         1.595112        -0.318806         0.298468
 C         0.206355         0.012887         0.068777
 C        -0.994021         0.195949         0.067160
 C        -2.387207         0.593730        -0.053529
 O        -3.062524         0.630162         1.157076
 C        -3.276919        -0.174561        -1.095307
 C        -4.722146        -0.049401        -1.318014
 C        -4.429968         0.041615        -2.881199
 O        -3.021896         0.326610        -2.482535
 H         1.899101        -0.112981         1.415442
 H         1.911113        -1.474861         0.195671
 H         2.231837         0.284394        -0.340428
 H        -2.357540         1.710658        -0.568405
 H        -2.456544         0.731746         1.881267
 H        -2.937000        -1.242379        -1.172414
 H        -5.513882        -0.742545        -1.013589
 H        -4.987610         0.903492        -0.876772
 H        -4.477812        -0.921577        -3.356104
 H        -4.952723         0.716611        -3.469933
