19
Iteration:   703
 C         1.349995        -0.396987         0.248958
 C         0.066892         0.167262         0.018025
 C        -1.136860         0.303522         0.086499
 C        -2.548718         0.389610         0.019509
 O        -3.020598        -0.330429         1.183172
 C        -3.071173        -0.170051        -1.326580
 C        -4.543757        -0.306469        -1.599051
 C        -4.312010         0.796352        -2.614029
 O        -2.904940         0.977637        -2.285518
 H         1.475743        -0.827954         1.314637
 H         1.598248        -1.142273        -0.459455
 H         2.135861         0.333681         0.179335
 H        -2.964699         1.440310         0.093800
 H        -2.348090        -0.691221         1.805125
 H        -2.583725        -1.041640        -1.733049
 H        -4.746901        -1.304274        -1.981811
 H        -5.318040        -0.036501        -0.858789
 H        -4.528755         0.524729        -3.604770
 H        -4.656292         1.770026        -2.586781
