19
Iteration:  3067
 C         1.670848        -0.189465         0.240102
 C         0.229174         0.012363         0.058442
 C        -1.007504         0.172466        -0.051208
 C        -2.419147         0.789686        -0.106222
 O        -3.070907         1.099682         1.151191
 C        -3.223236        -0.313606        -1.012503
 C        -4.799273        -0.164377        -1.230646
 C        -4.436290        -0.003581        -2.787596
 O        -2.946534        -0.135573        -2.453808
 H         2.206684         0.613328         0.615852
 H         1.672202        -0.849520         1.058066
 H         2.257339        -0.686468        -0.541220
 H        -2.375189         1.678717        -0.818211
 H        -3.664695         0.274908         1.312745
 H        -2.903276        -1.296089        -0.893327
 H        -5.570407        -0.943808        -1.004441
 H        -5.055974         0.863827        -0.997160
 H        -4.786733        -0.933872        -3.358736
 H        -4.762636         0.990377        -3.327564
