19
Iteration:  2116
 C         1.449637        -0.233685        -0.224553
 C         0.074071         0.196591         0.143271
 C        -1.106890         0.364396         0.104688
 C        -2.590556         0.586192         0.159964
 O        -3.317594         0.075741         1.334244
 C        -3.264273        -0.116310        -1.003125
 C        -4.586606         0.364311        -1.421499
 C        -4.024150         0.246046        -2.884178
 O        -2.676308         0.028113        -2.378799
 H         2.332751         0.576207        -0.093485
 H         1.665438        -0.989726         0.634891
 H         1.539412        -0.715023        -1.189365
 H        -2.835008         1.719736         0.225978
 H        -3.113210        -0.897964         1.286023
 H        -3.313277        -1.223652        -0.675386
 H        -5.545111        -0.184301        -1.265891
 H        -4.879085         1.398896        -1.195001
 H        -4.323062        -0.657369        -3.472723
 H        -4.130397         1.183718        -3.495533
