19
Iteration:   633
 C         1.548676        -0.190436         0.412015
 C         0.118046         0.033389         0.252276
 C        -1.075275         0.224968         0.106355
 C        -2.545467         0.414199        -0.071696
 O        -3.164505        -0.443580         0.899247
 C        -3.074104        -0.158784        -1.397439
 C        -4.569251        -0.092373        -1.314827
 C        -4.355434         0.926531        -2.461477
 O        -2.981539         0.732485        -2.550745
 H         1.970764         0.578136         1.044186
 H         1.950453        -1.287890         0.640564
 H         2.042253        -0.089003        -0.628500
 H        -2.618402         1.519006         0.023161
 H        -2.779790        -1.278721         0.804564
 H        -2.565484        -1.103605        -1.661169
 H        -5.106689        -0.980589        -1.700288
 H        -4.810196         0.178361        -0.273578
 H        -4.800538         0.768852        -3.486404
 H        -4.612363         1.948166        -2.121873
