19
Iteration:  2215
 C         1.440820        -0.129371        -0.229697
 C         0.011365         0.090523        -0.080863
 C        -1.207603         0.242638         0.062525
 C        -2.606632         0.561805         0.149388
 O        -3.050367         0.073901         1.479731
 C        -3.496005        -0.191427        -0.878829
 C        -4.698402         0.425235        -1.671799
 C        -3.796184         0.360134        -2.927129
 O        -2.685108        -0.040323        -2.159608
 H         1.801234        -0.790053         0.512948
 H         1.542701        -0.889026        -0.956613
 H         1.952287         0.725407        -0.438872
 H        -2.755973         1.708891         0.062750
 H        -3.859691         0.634096         1.750430
 H        -3.459267        -1.257944        -0.597583
 H        -5.486414        -0.288777        -1.465631
 H        -5.024655         1.379797        -1.279171
 H        -4.102450        -0.570730        -3.599046
 H        -3.690434         1.246393        -3.644534
