19
Iteration:  3233
 C         1.473144        -0.204681         0.435793
 C         0.087076        -0.036981         0.006106
 C        -0.999197         0.362207        -0.338935
 C        -2.385698         0.759501        -0.311708
 O        -2.753103         0.984303         1.151154
 C        -3.316616        -0.338528        -0.950276
 C        -4.761551        -0.017086        -1.245027
 C        -4.373228         0.083703        -2.727774
 O        -3.005686        -0.338871        -2.324231
 H         1.715815        -1.218900         0.321943
 H         2.148689         0.370759        -0.156471
 H         1.748225         0.133461         1.509601
 H        -2.588894         1.636302        -0.886489
 H        -3.733876         1.065341         1.190914
 H        -3.033135        -1.262833        -0.477723
 H        -5.395121        -0.881633        -1.065637
 H        -5.220684         0.883563        -0.841710
 H        -4.841891        -0.640030        -3.414514
 H        -4.424180         1.053618        -3.304172
