19
Iteration:  4976charge 0 multiplicity 1
 C         1.399415        -0.430641         0.513327
 C         0.197563         0.202223         0.016485
 C        -0.867741         0.538570        -0.492841
 C        -2.221862         0.998831        -0.694981
 O        -2.703040         1.424555         0.678795
 C        -3.307055        -0.170974        -0.827334
 C        -4.783948         0.288736        -1.200285
 C        -4.560494        -0.630903        -2.391395
 O        -3.194704        -0.966474        -1.944690
 H         2.144918         0.418615         0.542993
 H         1.404448        -0.869784         1.525634
 H         1.747156        -1.076345        -0.309004
 H        -2.488240         1.730716        -1.495077
 H        -2.513598         2.346156         0.677105
 H        -3.189703        -0.650737         0.271337
 H        -5.454903         0.016658        -0.344593
 H        -4.850690         1.348042        -1.353810
 H        -5.242249        -1.431678        -2.577829
 H        -4.548780         0.045163        -3.240663
