19
Iteration:  2089charge 0 multiplicity 1
 C         1.522889        -0.204648        -0.157790
 C         0.107230         0.120415         0.140722
 C        -1.067650         0.241832         0.274516
 C        -2.543401         0.502409         0.114546
 O        -3.238080         0.229401         1.343199
 C        -3.205610        -0.239129        -1.069614
 C        -4.719967         0.260230        -1.468220
 C        -4.113410         0.311783        -2.888647
 O        -2.738334         0.198366        -2.380864
 H         2.010879         0.606558        -0.530650
 H         1.956836        -0.508433         0.762366
 H         1.769171        -1.069951        -0.851084
 H        -2.794899         1.616676        -0.149404
 H        -3.718479        -0.596265         1.079923
 H        -3.214770        -1.390261        -0.876034
 H        -5.636089        -0.317303        -1.381377
 H        -5.157629         1.246538        -1.255413
 H        -4.087077        -0.759813        -3.471396
 H        -4.350858         1.182170        -3.522149
