19
Iteration:  2670
 C         1.513741        -0.356357         0.237916
 C         0.097011         0.106096         0.020280
 C        -1.060871         0.486279        -0.115064
 C        -2.512099         0.737048        -0.204489
 O        -2.933897         0.544250         1.354200
 C        -3.243669        -0.293382        -1.032794
 C        -4.706033         0.040937        -1.373104
 C        -4.226549         0.346572        -2.719978
 O        -2.942993        -0.251778        -2.475954
 H         1.904831        -0.920758        -0.616096
 H         2.258482         0.408942         0.441012
 H         1.424622        -1.239005         0.974563
 H        -2.942083         1.790726        -0.452292
 H        -3.469439         1.342993         1.458448
 H        -3.201174        -1.321741        -0.645359
 H        -5.397804        -0.839602        -1.280529
 H        -5.093048         0.899853        -0.719645
 H        -4.780982        -0.203371        -3.439687
 H        -4.093438         1.354095        -2.999068
