19
Iteration:   476
 C         1.486456         0.150856         0.051335
 C         0.075656         0.304517         0.214642
 C        -1.119252         0.147464         0.082992
 C        -2.576805         0.160089         0.173916
 O        -3.285980        -0.901895         1.036549
 C        -3.223001        -0.206670        -1.239455
 C        -4.654982         0.311225        -1.485061
 C        -4.043625         1.132358        -2.584845
 O        -2.737509         0.459316        -2.369597
 H         1.811806        -0.362109        -0.960001
 H         1.970188         1.151957         0.093755
 H         1.915156        -0.566281         0.881848
 H        -2.912767         1.197395         0.623038
 H        -2.985182        -1.774103         0.712366
 H        -3.080779        -1.316600        -1.249716
 H        -5.384399        -0.403306        -1.826864
 H        -5.080031         0.945299        -0.743516
 H        -4.335062         0.720533        -3.571700
 H        -3.969961         2.233589        -2.659396
