19
Iteration:  1704charge 0 multiplicity 1
 C         1.312533        -0.219507        -0.020080
 C        -0.115647         0.026344        -0.075859
 C        -1.197454         0.431574         0.090980
 C        -2.646515         0.492706         0.148292
 O        -2.977143        -0.209466         1.401360
 C        -3.272535        -0.205842        -1.096401
 C        -4.744985         0.151878        -1.605300
 C        -3.861047         0.561653        -2.917539
 O        -2.694687         0.443927        -2.226298
 H         1.843805         0.681319        -0.332131
 H         1.646983        -0.226359         0.971162
 H         1.808756        -1.106724        -0.586467
 H        -3.003479         1.553272         0.568183
 H        -2.509620        -1.042518         1.270986
 H        -3.201759        -1.237520        -0.791998
 H        -5.354266        -0.746921        -1.598996
 H        -5.155248         1.002477        -1.042214
 H        -3.917919        -0.232859        -3.666699
 H        -4.188614         1.503843        -3.342076
