19
Iteration:  1658
 C         1.259783        -0.223406        -0.235479
 C        -0.029453         0.305279         0.013890
 C        -1.205402         0.495139         0.132591
 C        -2.706154         0.438814         0.253790
 O        -3.132082        -0.341566         1.419790
 C        -3.260878        -0.181949        -1.052727
 C        -4.644976         0.297209        -1.619796
 C        -3.844937         0.519246        -2.942905
 O        -2.585371         0.283309        -2.184017
 H         1.760582        -0.081665        -1.225815
 H         1.980581         0.114716         0.423560
 H         0.927254        -1.337913        -0.093392
 H        -3.200660         1.465189         0.511335
 H        -2.379786        -1.009670         1.455934
 H        -3.063333        -1.255317        -1.043258
 H        -5.437205        -0.436554        -1.744833
 H        -4.980126         1.162490        -1.034689
 H        -4.176571        -0.213164        -3.702289
 H        -3.853619         1.482539        -3.361617
