19
Iteration:   183charge 0 multiplicity 1
 C         1.555045        -0.031960         0.346991
 C         0.145665        -0.077281         0.085915
 C        -1.070443         0.006357         0.010639
 C        -2.545004         0.076625        -0.013434
 O        -2.918076        -0.883317         0.991958
 C        -3.222046        -0.117660        -1.367107
 C        -4.741635         0.137825        -1.500948
 C        -4.322002         1.268987        -2.503930
 O        -2.909497         1.007906        -2.285563
 H         2.110081         0.611456        -0.371131
 H         1.892254         0.326283         1.352460
 H         1.966881        -1.155497         0.232473
 H        -2.866061         1.077787         0.436738
 H        -3.873891        -1.266169         0.891931
 H        -2.756194        -0.975628        -1.888332
 H        -5.332088        -0.750891        -1.756930
 H        -5.331141         0.347702        -0.533903
 H        -4.600522         1.054649        -3.565098
 H        -4.643969         2.335317        -2.272726
