19
Iteration:  3578
 C         1.467596        -0.092821        -0.203582
 C         0.055759         0.028093         0.032205
 C        -1.118564         0.204804         0.133027
 C        -2.464119         0.719821        -0.116253
 O        -3.110700         1.179783         1.074908
 C        -3.395773        -0.284605        -0.780348
 C        -4.669471         0.299222        -1.432952
 C        -4.073187        -0.299475        -2.753383
 O        -2.816945        -0.606159        -2.102624
 H         1.661778        -1.225902        -0.344775
 H         1.873482         0.372083        -1.169857
 H         1.944578         0.425287         0.620432
 H        -2.408087         1.576685        -0.853467
 H        -2.536790         1.937278         1.397908
 H        -3.609649        -1.135386        -0.083242
 H        -5.635286        -0.024409        -0.999272
 H        -4.660051         1.404380        -1.387316
 H        -4.607378        -1.104927        -3.165756
 H        -3.900474         0.448762        -3.571812
