19
Iteration:  3030charge 0 multiplicity 1
 C         1.496466        -0.221898         0.066185
 C         0.049126        -0.049457         0.005721
 C        -1.081391         0.348453         0.064528
 C        -2.439303         0.750167        -0.134154
 O        -3.080242         0.957755         1.093199
 C        -3.197299        -0.309684        -0.997133
 C        -4.735174         0.014295        -1.244135
 C        -4.302005        -0.129032        -2.713615
 O        -2.798290        -0.053341        -2.386114
 H         2.114324         0.674529        -0.394989
 H         1.648761        -0.251332         1.248597
 H         1.821584        -1.211130        -0.268492
 H        -2.423483         1.728558        -0.553973
 H        -3.316957         0.045339         1.461025
 H        -2.848976        -1.317070        -0.556932
 H        -5.424004        -0.672926        -0.777473
 H        -5.083446         0.981066        -0.853869
 H        -4.406835        -1.091435        -3.142241
 H        -4.597574         0.589424        -3.519265
