19
Iteration:  4456
 C         1.486071        -0.293470         0.548983
 C         0.188318         0.201568        -0.019523
 C        -0.916258         0.446884        -0.422256
 C        -2.314797         0.772569        -0.665036
 O        -2.940450         1.435676         0.530751
 C        -3.268973        -0.422847        -0.774696
 C        -4.646738         0.271762        -0.957113
 C        -4.480863        -0.320001        -2.459521
 O        -3.162000        -0.827395        -2.102095
 H         2.152258        -0.592024        -0.375797
 H         2.013568         0.328434         1.285568
 H         1.279985        -1.132701         1.162258
 H        -2.382201         1.492218        -1.531598
 H        -2.192673         1.907771         1.059986
 H        -3.195196        -1.194910         0.064626
 H        -5.562270        -0.195298        -0.471475
 H        -4.635447         1.344619        -0.665510
 H        -5.118262        -1.251136        -2.648356
 H        -4.376604         0.446479        -3.241946
