19
Iteration:  1501charge 0 multiplicity 1
 C         1.481153         0.074390        -0.183127
 C         0.029182        -0.003428         0.038221
 C        -1.165312         0.106809         0.239832
 C        -2.551825         0.389025         0.165142
 O        -3.347603        -0.124271         1.275873
 C        -3.250929        -0.257586        -1.022589
 C        -4.685790         0.201190        -1.557642
 C        -3.933007         0.771438        -2.760330
 O        -2.654183         0.171906        -2.363282
 H         2.071190        -0.831413         0.144481
 H         1.791484         0.122217        -1.259018
 H         1.806813         0.978042         0.257065
 H        -2.668394         1.541139         0.044718
 H        -2.724069        -0.484886         1.904957
 H        -3.448594        -1.336570        -0.918058
 H        -5.430618        -0.609659        -1.688903
 H        -5.247939         1.028075        -1.039995
 H        -4.335495         0.376878        -3.729524
 H        -3.960003         1.816979        -2.811455
