19
Iteration:   558
 C         1.520423         0.147654         0.442204
 C         0.123625        -0.067575         0.253667
 C        -1.001232        -0.075912        -0.261329
 C        -2.541859         0.171425        -0.062078
 O        -3.010901        -0.647108         1.099651
 C        -3.257954        -0.264120        -1.274536
 C        -4.793441         0.128368        -1.526333
 C        -4.232987         1.144560        -2.601467
 O        -2.922729         0.716897        -2.373644
 H         1.745700         1.013019        -0.144667
 H         1.930518         0.317322         1.524124
 H         2.120251        -0.668056         0.035004
 H        -2.412913         1.273331         0.038870
 H        -2.565019        -0.269033         1.969772
 H        -3.049134        -1.312431        -1.466780
 H        -5.442759        -0.713770        -1.917938
 H        -5.391647         0.671219        -0.723553
 H        -4.552816         0.918270        -3.593138
 H        -4.335865         2.180358        -2.458911
