19
Iteration:  4314charge 0 multiplicity 1
 C         1.494330        -0.539493         0.319088
 C         0.141846        -0.007041         0.080520
 C        -0.880893         0.628575        -0.198667
 C        -2.262769         1.079669        -0.388451
 O        -3.066718         1.615409         0.718337
 C        -3.147119        -0.118465        -1.001869
 C        -4.662904         0.120680        -1.024171
 C        -4.557861        -0.671403        -2.424854
 O        -3.044044        -0.755437        -2.333920
 H         1.513042        -1.422046         1.063423
 H         1.999581        -0.810665        -0.629075
 H         2.042807         0.327999         0.591163
 H        -2.202658         1.883982        -1.114796
 H        -3.359442         0.812392         1.261810
 H        -2.935179        -0.797321        -0.065470
 H        -5.231564        -0.335315        -0.188535
 H        -4.924212         1.204632        -1.115639
 H        -4.926067        -1.758040        -2.514010
 H        -4.789133         0.006192        -3.268688
