19
Iteration:  2858charge 0 multiplicity 1
 C         1.409814        -0.265501        -0.297676
 C         0.048087         0.124060         0.005337
 C        -1.169765         0.239403         0.090153
 C        -2.535549         0.738434         0.089918
 O        -3.185898         0.713042         1.334579
 C        -3.375392        -0.149106        -0.885487
 C        -4.697993         0.277842        -1.540658
 C        -3.962533         0.009435        -2.920991
 O        -2.678009        -0.315132        -2.131337
 H         1.769312        -0.909052         0.464577
 H         1.562168        -0.849379        -1.196407
 H         2.039459         0.686115        -0.339633
 H        -2.625516         1.709161        -0.349128
 H        -2.694632         0.355800         2.043185
 H        -3.517755        -1.102364        -0.340876
 H        -5.500352        -0.442806        -1.223718
 H        -4.910790         1.363127        -1.190385
 H        -4.184203        -0.912467        -3.414015
 H        -3.807602         0.804066        -3.647812
