19
Iteration:  3953
 C         1.328904        -0.563080         0.263565
 C         0.161569         0.220465        -0.250079
 C        -0.928242         0.751394        -0.232845
 C        -2.414969         0.954146        -0.339238
 O        -3.035774         1.204751         0.949489
 C        -3.194534        -0.160065        -0.794040
 C        -4.609478         0.259297        -1.259311
 C        -4.305064        -0.547185        -2.547538
 O        -2.950976        -0.728032        -2.103065
 H         1.030194        -1.611184         0.238193
 H         2.209692        -0.616277        -0.412266
 H         1.644523        -0.260731         1.200481
 H        -2.724909         1.623529        -1.122205
 H        -3.253542         2.181466         1.087778
 H        -3.241928        -0.922018         0.062883
 H        -5.432489        -0.116476        -0.629038
 H        -4.728633         1.317471        -1.546037
 H        -4.861789        -1.473276        -2.430328
 H        -4.392359         0.038884        -3.553619
