19
Iteration:  1910
 C         1.430223        -0.365516         0.550957
 C         0.028744         0.079895         0.126882
 C        -1.028017         0.480083        -0.244048
 C        -2.507369         0.607241        -0.162093
 O        -2.902642         0.083293         1.183948
 C        -3.116512        -0.210706        -1.218643
 C        -4.633646        -0.122488        -1.287264
 C        -4.393564         0.664070        -2.615748
 O        -2.959614         0.278791        -2.656189
 H         1.326018        -1.408679         0.858710
 H         2.147404        -0.301275        -0.184879
 H         1.632256         0.133387         1.478723
 H        -2.750417         1.758419        -0.296740
 H        -2.531002        -0.772200         1.257537
 H        -2.698059        -1.253705        -1.083299
 H        -5.160769        -1.074750        -1.474831
 H        -4.900211         0.360880        -0.319673
 H        -4.945054         0.287144        -3.564192
 H        -4.769277         1.658774        -2.405612
