19
Iteration:  1566charge 0 multiplicity 1
 C         1.387597         0.143286        -0.385935
 C         0.045946        -0.045070        -0.015802
 C        -1.137644        -0.069362         0.322418
 C        -2.607161         0.302823         0.221469
 O        -3.431730        -0.094712         1.295828
 C        -3.290810        -0.276102        -1.044497
 C        -4.598504         0.273491        -1.559648
 C        -3.842378         0.614135        -2.818899
 O        -2.589890         0.338450        -2.189478
 H         1.803657        -0.567741        -1.157060
 H         1.454263         1.145326        -0.964385
 H         1.927536         0.061670         0.513596
 H        -2.677301         1.445810         0.205820
 H        -3.563616         0.688390         1.844059
 H        -3.287794        -1.335388        -0.808413
 H        -5.439332        -0.428719        -1.695108
 H        -4.838533         1.081774        -0.834315
 H        -3.912236        -0.113020        -3.623942
 H        -3.697495         1.545124        -3.263609
