19
Iteration:  1056
 C         1.432965         0.154405        -0.063211
 C         0.012264        -0.159758        -0.090348
 C        -1.179804        -0.086082         0.092952
 C        -2.632637         0.310786         0.146647
 O        -3.294404        -0.020677         1.351459
 C        -3.208659        -0.286033        -1.131779
 C        -4.607654         0.103001        -1.500478
 C        -4.003999         0.849832        -2.744514
 O        -2.641547         0.405549        -2.310114
 H         1.952988        -0.147041         0.840305
 H         1.913635        -0.336258        -0.851432
 H         1.483602         1.277416        -0.251049
 H        -2.707729         1.410642         0.253552
 H        -3.033089        -0.983928         1.568294
 H        -3.050299        -1.426559        -1.137743
 H        -5.079668        -0.772748        -1.956538
 H        -5.166841         0.644821        -0.717610
 H        -4.246773         0.378403        -3.745410
 H        -3.933806         1.918003        -2.636647
