19
Iteration:  4196
 C         1.466176        -0.405885         0.141556
 C        -0.037327        -0.135277        -0.036346
 C        -1.095726         0.428604        -0.433169
 C        -2.406879         1.019614        -0.352854
 O        -2.846507         1.432799         1.036818
 C        -3.394720        -0.002510        -0.784909
 C        -4.795036         0.166916        -1.418297
 C        -4.168456        -0.592037        -2.553408
 O        -2.888502        -0.731888        -1.934699
 H         1.861003         0.412780         0.787261
 H         1.712620        -1.307076         0.761124
 H         1.953830        -0.518456        -0.885763
 H        -2.531080         2.011964        -0.895689
 H        -2.593205         2.327808         1.123104
 H        -3.379318        -0.816145         0.016797
 H        -5.636607        -0.221660        -0.823158
 H        -4.962381         1.242280        -1.579405
 H        -4.420396        -1.544762        -2.995788
 H        -4.149292         0.205985        -3.359391
