19
Iteration:  3464
 C         1.154542        -0.475551        -0.302320
 C        -0.039139         0.352945        -0.270683
 C        -1.139371         0.830063         0.009753
 C        -2.611695         0.926295         0.036485
 O        -3.020555         0.914509         1.361760
 C        -3.366413        -0.170338        -0.813976
 C        -4.558303         0.304542        -1.670685
 C        -3.837368        -0.419490        -2.763389
 O        -2.702028        -0.676296        -1.890727
 H         1.785477        -0.421849         0.612043
 H         0.911821        -1.541274        -0.411221
 H         1.841994        -0.375031        -1.287708
 H        -2.970508         1.939948        -0.362366
 H        -2.843890         0.013345         1.792368
 H        -3.672505        -0.878260        -0.021764
 H        -5.519619        -0.130474        -1.328121
 H        -4.546592         1.406417        -1.862471
 H        -4.266475        -1.328673        -3.178481
 H        -3.469534         0.097601        -3.638760
