19
Iteration:   178charge 0 multiplicity 1
 C         1.583005        -0.049340         0.365403
 C         0.142425        -0.068406         0.078789
 C        -1.064544         0.045753        -0.012156
 C        -2.530617         0.043356        -0.008133
 O        -2.966816        -0.891845         1.004041
 C        -3.155006        -0.100876        -1.395209
 C        -4.775612         0.142721        -1.468829
 C        -4.316031         1.248357        -2.470780
 O        -2.916276         1.012684        -2.317306
 H         2.177895         0.487229        -0.392392
 H         1.783037         0.387092         1.334594
 H         1.961185        -0.996603         0.332764
 H        -2.868863         1.024091         0.280806
 H        -3.789133        -1.248037         0.741451
 H        -2.796966        -1.035749        -1.856636
 H        -5.447932        -0.670004        -1.798137
 H        -5.254631         0.472095        -0.545095
 H        -4.633524         1.068511        -3.513880
 H        -4.685852         2.191767        -2.114834
