19
Iteration:  2665
 C         1.495607        -0.376634         0.253976
 C         0.117631         0.128778         0.030771
 C        -1.069470         0.489000        -0.073233
 C        -2.526900         0.733061        -0.208838
 O        -2.923491         0.535900         1.320457
 C        -3.230359        -0.314952        -1.019727
 C        -4.714380         0.053240        -1.352716
 C        -4.235065         0.327705        -2.719828
 O        -2.952345        -0.238381        -2.499711
 H         1.743788        -0.944302        -0.697432
 H         2.317188         0.395444         0.403680
 H         1.585735        -1.071967         1.053794
 H        -2.822197         1.671492        -0.607292
 H        -3.392771         1.345592         1.619256
 H        -3.043971        -1.314752        -0.606626
 H        -5.408380        -0.748689        -1.244172
 H        -5.006480         0.885025        -0.780767
 H        -4.881328        -0.119936        -3.555138
 H        -4.206789         1.415790        -3.114696
