19
Iteration:  4694charge 0 multiplicity 1
 C         1.400990        -0.567640        -0.010948
 C         0.052173         0.007539        -0.207249
 C        -1.086728         0.399020        -0.165704
 C        -2.377897         1.044822        -0.303868
 O        -2.978432         1.781512         0.888664
 C        -3.428076         0.000547        -0.713162
 C        -4.716969         0.194342        -1.515530
 C        -4.134601        -0.780855        -2.478223
 O        -2.858153        -0.816106        -1.826673
 H         1.497538        -1.056471         0.925802
 H         1.841619        -1.130327        -0.872523
 H         2.160288         0.288286         0.110667
 H        -2.290381         1.820365        -1.092203
 H        -2.386136         1.705520         1.695146
 H        -3.521366        -0.698373         0.213146
 H        -5.666378        -0.089450        -0.991601
 H        -4.939613         1.185633        -1.858510
 H        -4.747592        -1.711594        -2.293491
 H        -4.158930        -0.554712        -3.559729
