19
Iteration:  3849
 C         1.465003        -0.335042         0.321390
 C         0.120532        -0.073524        -0.013470
 C        -1.034273         0.218533         0.129829
 C        -2.240102         0.881214        -0.340680
 O        -2.899949         1.624279         0.706577
 C        -3.162437        -0.232473        -0.975982
 C        -4.701104        -0.082137        -1.020797
 C        -4.464616        -0.554956        -2.483608
 O        -3.079833        -0.250835        -2.438608
 H         1.770175        -0.169221         1.358759
 H         1.799326        -1.298994        -0.009896
 H         2.112811         0.416876        -0.281129
 H        -2.081295         1.488536        -1.202113
 H        -3.702184         1.281694         1.035025
 H        -3.007761        -1.254275        -0.530293
 H        -5.447889        -0.744794        -0.613989
 H        -5.097004         0.930156        -0.937880
 H        -4.671892        -1.645216        -2.681794
 H        -4.878556        -0.048874        -3.307714
