19
Iteration:  3168
 C         1.497016        -0.259834         0.614959
 C         0.290416         0.166730        -0.063224
 C        -0.886422         0.482995        -0.285053
 C        -2.376207         0.745453        -0.396215
 O        -2.880886         0.759767         0.987923
 C        -3.276440        -0.320048        -1.012680
 C        -4.782701        -0.029665        -1.124787
 C        -4.470265         0.139051        -2.617246
 O        -3.076962        -0.382068        -2.441236
 H         1.097641        -0.734696         1.429694
 H         2.011714        -0.911357         0.036546
 H         2.240847         0.470978         0.951873
 H        -2.391452         1.778462        -0.816602
 H        -3.498374         1.464152         0.996366
 H        -3.084667        -1.237242        -0.563796
 H        -5.384823        -0.892853        -0.834678
 H        -5.146322         0.794087        -0.480537
 H        -5.138259        -0.378587        -3.430749
 H        -4.406431         1.264515        -2.914226
