19
Iteration:  2706charge 0 multiplicity 1
 C         1.468106        -0.282102         0.145325
 C         0.026998        -0.013737        -0.177391
 C        -1.135634         0.363494        -0.137030
 C        -2.531046         0.766525        -0.185367
 O        -2.911740         0.635913         1.279082
 C        -3.360256        -0.327345        -0.943826
 C        -4.732052         0.048293        -1.372650
 C        -4.068401         0.351944        -2.685081
 O        -2.815415        -0.225804        -2.252039
 H         2.189064        -0.035611        -0.599515
 H         1.657130         0.112549         1.095605
 H         1.520893        -1.374903         0.465177
 H        -2.696082         1.862704        -0.424054
 H        -3.862341         0.632467         1.234518
 H        -3.097274        -1.241574        -0.365273
 H        -5.394920        -0.819659        -1.492864
 H        -5.354590         0.885836        -1.029884
 H        -4.378976        -0.155450        -3.631538
 H        -4.040199         1.446490        -2.881437
