19
Iteration:  2634charge 0 multiplicity 1
 C         1.531134        -0.387110         0.253956
 C         0.186996         0.201551         0.201496
 C        -0.989660         0.445368        -0.075654
 C        -2.454663         0.629846        -0.250165
 O        -3.140255         0.508625         1.133005
 C        -3.211815        -0.286272        -1.080245
 C        -4.667184         0.115808        -1.239563
 C        -4.334442         0.262005        -2.688904
 O        -2.962918        -0.125329        -2.502924
 H         1.335502        -1.345514        -0.321022
 H         2.425957         0.207011        -0.232529
 H         1.866372        -0.498102         1.247056
 H        -2.552698         1.669524        -0.750025
 H        -2.671391         1.066059         1.800014
 H        -2.982826        -1.288215        -0.687659
 H        -5.328321        -0.717971        -1.042415
 H        -4.981711         0.993432        -0.693090
 H        -4.893906        -0.476527        -3.249307
 H        -4.384481         1.245509        -3.082465
