19
Iteration:  4539charge 0 multiplicity 1
 C         1.472501        -0.232436         0.393141
 C         0.065755        -0.055818        -0.004519
 C        -1.053887         0.294228        -0.451479
 C        -2.386345         0.919133        -0.534469
 O        -2.658691         1.610156         0.623844
 C        -3.372270        -0.206776        -0.677929
 C        -4.815774         0.157159        -1.188771
 C        -4.364966        -0.468682        -2.508553
 O        -3.045509        -0.805068        -1.974324
 H         1.982308         0.692512         0.309474
 H         1.477647        -0.293127         1.506578
 H         2.064298        -1.046707        -0.176886
 H        -2.468849         1.727763        -1.281070
 H        -2.276722         1.040338         1.334230
 H        -3.245091        -0.857274         0.264522
 H        -5.652270        -0.462604        -0.846832
 H        -4.899650         1.277393        -1.108075
 H        -4.934029        -1.328398        -2.852962
 H        -4.407204         0.254501        -3.354802
