19
Iteration:  1198
 C         1.273048        -0.435540         0.269902
 C         0.053897         0.100194        -0.158534
 C        -1.122871         0.428951         0.077090
 C        -2.601294         0.503553         0.139906
 O        -2.978636        -0.205031         1.218614
 C        -3.105375        -0.044939        -1.217525
 C        -4.595508        -0.154414        -1.431878
 C        -4.179030         0.436494        -2.828658
 O        -2.895046         0.901306        -2.341095
 H         1.709505        -1.259315        -0.485137
 H         2.177994         0.114846         0.376769
 H         1.114329        -0.927271         1.305032
 H        -2.945107         1.502737         0.304290
 H        -2.406328        -1.045301         1.268638
 H        -2.669255        -1.047156        -1.447097
 H        -4.885444        -1.177450        -1.505312
 H        -5.199616         0.473193        -0.735327
 H        -3.949645        -0.288281        -3.703284
 H        -4.735062         1.291602        -3.092948
