19
Iteration:  1441charge 0 multiplicity 1
 C         1.416855        -0.191710         0.180987
 C         0.008637         0.314531        -0.021551
 C        -1.201760         0.409066         0.063835
 C        -2.569007         0.398074         0.029148
 O        -3.034753        -0.198511         1.235839
 C        -3.271340        -0.381857        -1.186864
 C        -4.656515         0.140071        -1.387883
 C        -3.992062         0.911625        -2.658418
 O        -2.804309         0.121959        -2.467296
 H         1.633742        -0.354605         1.222526
 H         1.425831        -1.095387        -0.476565
 H         2.286068         0.473700        -0.237292
 H        -3.057631         1.503069        -0.173589
 H        -2.954249        -1.122599         1.221827
 H        -3.072679        -1.456053        -0.991981
 H        -5.456309        -0.580407        -1.584976
 H        -4.978623         0.879943        -0.686462
 H        -4.442514         0.513872        -3.535432
 H        -3.864073         2.021656        -2.755898
