19
Iteration:  3411charge 0 multiplicity 1
 C         1.144769        -0.410155        -0.335433
 C        -0.103369         0.137848        -0.095243
 C        -1.193728         0.618261        -0.045121
 C        -2.565598         0.947078        -0.004728
 O        -3.003184         0.964917         1.394861
 C        -3.434716        -0.090537        -0.758109
 C        -4.668597         0.234667        -1.686391
 C        -3.804443        -0.442163        -2.778762
 O        -2.584808        -0.517774        -1.982913
 H         2.042922         0.283885        -0.163877
 H         1.537864        -1.156344         0.318024
 H         1.194714        -0.806366        -1.433393
 H        -2.692282         1.982051        -0.389389
 H        -2.390542         0.358073         1.943310
 H        -3.646743        -0.890558         0.059045
 H        -5.691157        -0.121363        -1.309460
 H        -4.822785         1.360073        -1.791780
 H        -4.034007        -1.451763        -3.061618
 H        -3.668148         0.119544        -3.765864
