19
Iteration:  4920charge 0 multiplicity 1
 C         1.500726        -0.451601         0.186720
 C         0.177873         0.015868        -0.020336
 C        -0.945862         0.414352        -0.045895
 C        -2.320995         0.941289        -0.409752
 O        -2.867905         1.863075         0.432575
 C        -3.396958        -0.259941        -0.679797
 C        -4.718012         0.182691        -1.171240
 C        -4.437083        -0.614235        -2.465712
 O        -3.066128        -0.835579        -2.022165
 H         2.207661         0.097194        -0.440456
 H         1.899976        -0.463453         1.171645
 H         1.754379        -1.443231         0.019747
 H        -2.187116         1.444410        -1.389066
 H        -3.083778         1.528374         1.309577
 H        -3.305102        -1.014018         0.183494
 H        -5.541714        -0.182883        -0.524431
 H        -4.759149         1.264164        -1.186225
 H        -4.983055        -1.536448        -2.508482
 H        -4.463140        -0.094450        -3.414175
