19
Iteration:  1327charge 0 multiplicity 1
 C         1.634856        -0.185868         0.410998
 C         0.209856         0.008439         0.140994
 C        -1.038660         0.011206         0.153612
 C        -2.367182         0.382132        -0.146399
 O        -3.232314        -0.055956         0.937955
 C        -3.165403        -0.270822        -1.355791
 C        -4.664196        -0.054842        -1.295599
 C        -4.422002         0.756706        -2.589192
 O        -2.985860         0.642205        -2.483535
 H         2.199170         0.830873         0.278281
 H         1.819207        -0.527035         1.421901
 H         2.204321        -0.778062        -0.274776
 H        -2.357517         1.562021        -0.176426
 H        -2.895551         0.078060         1.832789
 H        -3.000028        -1.355923        -1.622960
 H        -5.182429        -1.022711        -1.293939
 H        -5.099059         0.671234        -0.564033
 H        -4.877853         0.280604        -3.537583
 H        -4.664498         1.877487        -2.642173
