19
Iteration:   355
 C         1.357327         0.167021        -0.354628
 C        -0.064810         0.118828         0.052849
 C        -1.259599        -0.012233         0.189163
 C        -2.730568        -0.025926         0.297666
 O        -3.326747        -0.928786         1.249703
 C        -3.084015        -0.159996        -1.192726
 C        -4.536664         0.122288        -1.648185
 C        -3.860492         1.067564        -2.672159
 O        -2.581474         0.975593        -2.055635
 H         2.046714        -0.498231         0.293347
 H         1.537175        -0.108931        -1.379954
 H         1.779336         1.240123        -0.371889
 H        -2.945245         1.077737         0.392431
 H        -4.128559        -0.395522         1.470672
 H        -2.588963        -1.076893        -1.549262
 H        -5.029706        -0.719396        -2.064855
 H        -4.979571         0.697776        -0.880824
 H        -3.804087         0.452926        -3.583445
 H        -4.298956         1.995489        -2.940411
