19
Iteration:  1033charge 0 multiplicity 1
 C         1.495245         0.206300        -0.120429
 C         0.041951        -0.046570         0.018060
 C        -1.184019        -0.059426         0.137244
 C        -2.618554         0.163619         0.139882
 O        -3.234436        -0.042437         1.486741
 C        -3.308361        -0.362031        -1.178877
 C        -4.726332         0.193322        -1.648036
 C        -3.950092         0.961724        -2.717525
 O        -2.676482         0.261688        -2.381455
 H         1.873228         0.204586         0.950820
 H         2.009554        -0.605060        -0.506827
 H         1.685935         1.163631        -0.664008
 H        -2.536282         1.277041         0.168129
 H        -2.949511        -0.911987         1.624629
 H        -3.112171        -1.512033        -1.211269
 H        -5.447352        -0.569083        -2.072575
 H        -5.015485         0.898916        -0.830762
 H        -4.132849         0.617397        -3.782652
 H        -3.894024         1.993198        -2.383931
