19
Iteration:  4731
 C         1.219499        -0.553844        -0.049027
 C        -0.089546         0.010124         0.095061
 C        -1.057176         0.633138        -0.352497
 C        -2.427585         1.097000        -0.369748
 O        -2.670718         1.780749         0.928213
 C        -3.405581        -0.072307        -0.718070
 C        -4.774215         0.097667        -1.532335
 C        -4.145523        -0.791093        -2.497320
 O        -2.826269        -0.844121        -1.806786
 H         1.163045        -1.725677         0.361609
 H         1.654762        -0.550586        -1.118092
 H         1.874908         0.174492         0.472739
 H        -2.411118         1.926074        -1.134705
 H        -2.568797         0.991346         1.580013
 H        -3.655008        -0.696004         0.272480
 H        -5.608473        -0.269374        -0.876381
 H        -4.929322         1.199961        -1.839613
 H        -4.543875        -1.812898        -2.511240
 H        -3.942078        -0.486270        -3.525004
