19
Iteration:  3903
 C         1.473645        -0.470738         0.198712
 C         0.084927         0.039241         0.182711
 C        -1.023532         0.539528        -0.012651
 C        -2.337358         0.963373        -0.393880
 O        -2.861247         1.461419         0.826508
 C        -3.301578        -0.183260        -0.941230
 C        -4.793483         0.005327        -1.158167
 C        -4.427402        -0.665281        -2.566789
 O        -2.954964        -0.402775        -2.299147
 H         1.629260        -1.339427         0.860658
 H         1.804497        -0.874420        -0.765371
 H         2.195728         0.417386         0.481820
 H        -2.366738         1.687987        -1.269155
 H        -2.173008         1.667629         1.423993
 H        -3.240352        -1.067085        -0.312132
 H        -5.610820        -0.545641        -0.685413
 H        -5.093636         1.032130        -1.371265
 H        -4.547962        -1.764013        -2.577282
 H        -4.730079        -0.106508        -3.404423
