19
Iteration:  3268charge 0 multiplicity 1
 C         1.555590        -0.258408         0.260052
 C         0.180403         0.056959        -0.138782
 C        -1.004024         0.314617        -0.011792
 C        -2.381962         0.763019        -0.255274
 O        -3.056871         0.967507         1.106600
 C        -3.260240        -0.295742        -0.935529
 C        -4.737513         0.076542        -1.252108
 C        -4.320876         0.016570        -2.712635
 O        -2.960336        -0.387272        -2.299089
 H         1.939684        -0.982678        -0.454199
 H         2.218544         0.520991         0.100257
 H         1.602798        -0.703834         1.263128
 H        -2.333895         1.677000        -0.839109
 H        -3.740846         1.625702         0.896677
 H        -3.353783        -1.160716        -0.380682
 H        -5.431409        -0.714872        -0.923732
 H        -5.156764         1.078175        -0.944812
 H        -4.691316        -0.920830        -3.237384
 H        -4.239656         0.976048        -3.318120
