19
Iteration:  4687
 C         1.408221        -0.542389         0.014293
 C         0.087597        -0.004922        -0.252777
 C        -1.071071         0.416671        -0.148241
 C        -2.389213         1.010542        -0.234352
 O        -3.007706         1.778512         0.856812
 C        -3.398337        -0.008598        -0.692704
 C        -4.701512         0.257924        -1.471253
 C        -4.175799        -0.792544        -2.448262
 O        -2.850893        -0.855021        -1.876075
 H         1.412563        -1.086529         1.064850
 H         1.789739        -1.138271        -0.863155
 H         2.102115         0.263751        -0.137338
 H        -2.402845         1.789980        -1.032614
 H        -2.403053         1.891116         1.664057
 H        -3.671498        -0.774741         0.036254
 H        -5.732629        -0.007777        -1.182333
 H        -4.804046         1.253158        -1.997234
 H        -4.610562        -1.788436        -2.442838
 H        -4.148941        -0.441707        -3.466298
