19
Iteration:  2594
 C         1.577169        -0.278085         0.327756
 C         0.141622        -0.068595         0.031133
 C        -1.016114         0.326259         0.111401
 C        -2.363223         0.669171        -0.161915
 O        -3.107348         0.674281         1.127281
 C        -3.144102        -0.229402        -1.074769
 C        -4.666498         0.108226        -1.201121
 C        -4.440293         0.124007        -2.746974
 O        -2.979243         0.031700        -2.588291
 H         1.796777        -1.289254         0.588637
 H         2.087129        -0.086584        -0.585610
 H         2.101435         0.448600         1.108474
 H        -2.543532         1.675991        -0.522854
 H        -3.117900        -0.295979         1.267524
 H        -2.989674        -1.331885        -0.984567
 H        -5.219028        -0.843395        -0.983866
 H        -5.222997         0.993625        -0.727888
 H        -4.829154        -0.674065        -3.420387
 H        -4.829751         1.063773        -3.266235
