19
Iteration:  3014charge 0 multiplicity 1
 C         1.472741        -0.292491         0.051797
 C         0.060254         0.045234         0.093602
 C        -1.098884         0.344573        -0.002083
 C        -2.482142         0.811599        -0.155557
 O        -3.187779         0.869439         1.171793
 C        -3.175657        -0.200913        -0.967287
 C        -4.601443         0.030606        -1.266245
 C        -4.222132        -0.173588        -2.716588
 O        -2.850147        -0.095425        -2.378122
 H         1.830329         0.244807        -0.799269
 H         2.092203        -0.047408         0.856386
 H         1.637594        -1.327718        -0.354812
 H        -2.578096         1.818037        -0.695653
 H        -2.574072         0.203376         1.651011
 H        -2.956176        -1.249148        -0.704784
 H        -5.452941        -0.569982        -0.862154
 H        -4.891731         1.111577        -1.145393
 H        -4.555558        -1.181860        -3.139607
 H        -4.472228         0.610684        -3.421458
