19
Iteration:  1962
 C         1.531120        -0.416804         0.375737
 C         0.190963         0.183911         0.177350
 C        -1.048581         0.405096         0.032587
 C        -2.452332         0.614467        -0.116890
 O        -3.107759         0.092495         1.040952
 C        -3.089346        -0.260521        -1.259685
 C        -4.724093        -0.035866        -1.272511
 C        -4.378789         0.546505        -2.651432
 O        -2.952472         0.261382        -2.564419
 H         1.553343        -1.334899        -0.337308
 H         2.371922         0.289551        -0.001771
 H         1.733597        -0.691619         1.382633
 H        -2.659633         1.640272        -0.363540
 H        -3.124587         0.670699         1.772448
 H        -2.783140        -1.285880        -1.162065
 H        -5.154107        -1.048008        -1.338157
 H        -5.023411         0.505576        -0.360206
 H        -4.919225         0.228674        -3.523525
 H        -4.469435         1.685376        -2.599653
