19
Iteration:  3355
 C         1.457568        -0.319812        -0.315785
 C         0.016030         0.029128        -0.105198
 C        -1.128276         0.304464         0.186898
 C        -2.492408         0.846222         0.032249
 O        -3.267785         1.021169         1.204431
 C        -3.243958        -0.166428        -0.812271
 C        -4.652846         0.279535        -1.475254
 C        -4.009887        -0.319032        -2.803116
 O        -2.724598        -0.435088        -2.124801
 H         1.935377         0.306759        -1.077222
 H         1.815962        -0.262479         0.673204
 H         1.586944        -1.422902        -0.665876
 H        -2.461409         1.806124        -0.478745
 H        -3.260978         1.912721         1.567367
 H        -3.373150        -0.993471        -0.081474
 H        -5.463781        -0.324312        -1.021809
 H        -4.938245         1.358881        -1.519889
 H        -4.444772        -1.261685        -2.975414
 H        -3.961927         0.414648        -3.641334
