19
Iteration:  2825charge 0 multiplicity 1
 C         1.429257        -0.266456        -0.302818
 C         0.025511         0.043455        -0.013588
 C        -1.137918         0.377695         0.179563
 C        -2.539309         0.649725         0.094531
 O        -3.313656         0.688671         1.270621
 C        -3.292683        -0.340683        -0.913016
 C        -4.551034         0.333133        -1.355593
 C        -3.986178         0.147783        -2.893001
 O        -2.706210        -0.409362        -2.235689
 H         1.937487        -0.059452         0.606099
 H         1.614901        -1.176585        -0.878546
 H         1.908296         0.625284        -0.921036
 H        -2.581144         1.525012        -0.475818
 H        -3.242285         1.583486         1.712205
 H        -3.406644        -1.373313        -0.541051
 H        -5.608717         0.002066        -1.125202
 H        -4.487127         1.431746        -0.933795
 H        -4.382870        -0.632402        -3.496714
 H        -3.898567         1.015435        -3.513082
