19
Iteration:  2097
 C         1.519123        -0.245250        -0.145622
 C         0.156493         0.164769         0.138514
 C        -1.087437         0.309626         0.191392
 C        -2.542643         0.523910         0.165966
 O        -3.295453         0.166406         1.347726
 C        -3.194506        -0.216668        -1.059584
 C        -4.718356         0.307464        -1.509010
 C        -4.092940         0.292063        -2.901758
 O        -2.736223         0.144415        -2.359723
 H         2.102477         0.672168        -0.454239
 H         2.107390        -0.641597         0.661585
 H         1.362146        -0.886656        -1.060828
 H        -2.720682         1.500911        -0.100200
 H        -3.746864        -0.666294         1.278970
 H        -3.187737        -1.255570        -0.772821
 H        -5.493813        -0.427982        -1.156508
 H        -4.937555         1.356539        -1.191336
 H        -4.311601        -0.606205        -3.428526
 H        -4.230293         1.116677        -3.596887
