19
Iteration:  4382charge 0 multiplicity 1
 C         1.620408        -0.368195         0.321204
 C         0.220071         0.071294         0.231734
 C        -0.940786         0.231262        -0.071156
 C        -2.298823         0.861346        -0.455075
 O        -2.839697         1.807518         0.553424
 C        -3.338785        -0.306279        -0.829439
 C        -4.859705        -0.119620        -1.020477
 C        -4.532611        -0.488634        -2.618653
 O        -3.137004        -0.542787        -2.203969
 H         1.752251        -1.379788        -0.126677
 H         2.326595         0.185604        -0.313610
 H         1.931645        -0.091252         1.334525
 H        -2.185740         1.327173        -1.450809
 H        -2.179777         2.433034         0.749488
 H        -3.144030        -1.315087        -0.276233
 H        -5.427415        -0.830523        -0.402763
 H        -5.232284         0.890362        -0.999110
 H        -5.021467        -1.485369        -2.821859
 H        -4.723648         0.237672        -3.459800
