19
Iteration:  3184charge 0 multiplicity 1
 C         1.411560        -0.277600         0.581261
 C         0.168614         0.204041         0.064124
 C        -0.920115         0.462831        -0.444486
 C        -2.308441         0.705054        -0.271663
 O        -2.765917         0.849561         1.088501
 C        -3.196723        -0.371266        -0.993503
 C        -4.771560        -0.024298        -1.179020
 C        -4.442018         0.166309        -2.647994
 O        -3.152901        -0.386857        -2.490698
 H         1.360149        -1.137496         1.401809
 H         2.259178        -0.621437        -0.224327
 H         1.946577         0.632902         0.942125
 H        -2.679963         1.591601        -0.843345
 H        -3.576262         1.373094         1.113025
 H        -2.993983        -1.389440        -0.431614
 H        -5.365308        -0.948946        -1.107331
 H        -5.242160         0.870263        -0.715418
 H        -4.966826        -0.499350        -3.343622
 H        -4.416629         1.107274        -3.144956
