19
Iteration:  2093charge 0 multiplicity 1
 C         1.511683        -0.235044        -0.156706
 C         0.154251         0.145100         0.138973
 C        -1.092452         0.279614         0.230356
 C        -2.540331         0.508052         0.150701
 O        -3.269068         0.196381         1.347574
 C        -3.184251        -0.234913        -1.069086
 C        -4.724834         0.288837        -1.492304
 C        -4.105382         0.310581        -2.896480
 O        -2.741225         0.166542        -2.371291
 H         2.101232         0.718695        -0.508484
 H         2.095416        -0.594427         0.796479
 H         1.532697        -0.950520        -0.971210
 H        -2.804564         1.597039        -0.189415
 H        -3.756780        -0.662453         1.169145
 H        -3.218596        -1.320337        -0.752464
 H        -5.576974        -0.362669        -1.226031
 H        -5.086064         1.304554        -1.271515
 H        -4.116129        -0.675415        -3.396503
 H        -4.315369         1.158556        -3.589292
