19
Iteration:  1513charge 0 multiplicity 1
 C         1.413917         0.141452        -0.201859
 C         0.001289        -0.031841        -0.054071
 C        -1.162001        -0.026376         0.322740
 C        -2.624623         0.330878         0.148565
 O        -3.315181        -0.056287         1.274974
 C        -3.277788        -0.273669        -1.112427
 C        -4.642367         0.231230        -1.536506
 C        -3.913996         0.711836        -2.771930
 O        -2.639045         0.229261        -2.281796
 H         1.939434        -0.856096        -0.004516
 H         1.464427         0.385416        -1.243326
 H         1.931200         0.877918         0.392137
 H        -2.645484         1.478403         0.097343
 H        -2.680951        -0.060292         1.994921
 H        -3.055719        -1.372014        -0.973934
 H        -5.421811        -0.523073        -1.701253
 H        -4.939115         1.007815        -0.812203
 H        -4.107383         0.272083        -3.792435
 H        -3.847494         1.764372        -2.842200
