19
Iteration:  4995charge 0 multiplicity 1
 C         1.440365        -0.359710         0.611940
 C         0.246434         0.171355        -0.162341
 C        -0.813629         0.516791        -0.610189
 C        -2.295731         0.943020        -0.559845
 O        -2.650113         1.444248         0.691317
 C        -3.378896        -0.129155        -0.782791
 C        -4.786339         0.313036        -1.150792
 C        -4.548074        -0.612277        -2.409174
 O        -3.212056        -0.976313        -2.005969
 H         2.143990         0.300541         1.150133
 H         0.881865        -0.997897         1.373794
 H         2.069324        -1.091307         0.179568
 H        -2.355493         1.725709        -1.359595
 H        -2.727394         2.434330         0.669281
 H        -3.175460        -0.738407         0.064481
 H        -5.630198        -0.113616        -0.551215
 H        -5.052734         1.354886        -1.412662
 H        -5.205161        -1.538188        -2.380133
 H        -4.603415        -0.178317        -3.428448
