19
Iteration:  2401
 C         1.350078        -0.458594         0.195326
 C         0.118318         0.198958        -0.039742
 C        -1.062027         0.490722        -0.036648
 C        -2.532001         0.666156        -0.022799
 O        -2.876341         0.453777         1.277721
 C        -3.211328        -0.239289        -1.085068
 C        -4.718639        -0.087243        -1.365783
 C        -4.241309         0.357019        -2.756616
 O        -2.840420         0.045414        -2.431409
 H         2.140330         0.084693        -0.394566
 H         1.853213        -0.156402         1.258606
 H         1.196829        -1.561536         0.175272
 H        -2.898600         1.621600        -0.465067
 H        -3.869417         0.198717         1.289843
 H        -2.870036        -1.275368        -0.850045
 H        -5.212411        -1.027305        -1.520479
 H        -5.404939         0.532278        -0.794133
 H        -4.770667        -0.154166        -3.522388
 H        -4.208144         1.390153        -2.853267
