19
Iteration:  2672
 C         1.515611        -0.352355         0.225762
 C         0.088382         0.097924         0.015521
 C        -1.053679         0.485755        -0.137484
 C        -2.502029         0.739504        -0.186510
 O        -2.940406         0.551859         1.359134
 C        -3.257342        -0.289363        -1.042562
 C        -4.707134         0.039960        -1.363332
 C        -4.223330         0.351527        -2.727450
 O        -2.933295        -0.258805        -2.462839
 H         1.960767        -0.875660        -0.584793
 H         2.183456         0.396539         0.484763
 H         1.375716        -1.255339         0.961136
 H        -2.914703         1.781408        -0.369963
 H        -3.491483         1.304174         1.395023
 H        -3.221125        -1.331162        -0.644909
 H        -5.375604        -0.854162        -1.302022
 H        -5.146938         0.870301        -0.727700
 H        -4.755279        -0.279431        -3.470154
 H        -4.042960         1.437587        -2.963086
