19
Iteration:  4350
 C         1.431370        -0.395724         0.267331
 C         0.131709         0.033367         0.056127
 C        -1.001940         0.417298        -0.033097
 C        -2.313978         0.798935        -0.432637
 O        -2.884332         1.734600         0.505677
 C        -3.256962        -0.329213        -0.848324
 C        -4.710901        -0.003937        -0.949471
 C        -4.486339        -0.559788        -2.472588
 O        -3.011253        -0.483652        -2.265378
 H         1.570178        -1.420065         0.706635
 H         2.097127        -0.264988        -0.613867
 H         1.821871         0.162402         1.191787
 H        -2.228755         1.507287        -1.267777
 H        -2.425025         1.699443         1.412374
 H        -3.198799        -1.332917        -0.357338
 H        -5.399990        -0.469390        -0.242053
 H        -5.003515         1.010095        -1.131179
 H        -4.776574        -1.591428        -2.655320
 H        -4.732688        -0.060321        -3.425453
