19
Iteration:  2585
 C         1.574861        -0.258129         0.328988
 C         0.140137        -0.125617         0.051995
 C        -1.012667         0.256723         0.109511
 C        -2.415239         0.744237        -0.077842
 O        -3.025023         0.690388         1.148067
 C        -3.154088        -0.237938        -1.152243
 C        -4.708088         0.036796        -1.239596
 C        -4.460394         0.123135        -2.775288
 O        -2.962867         0.084457        -2.618357
 H         1.868525        -1.201563         0.705788
 H         2.115709        -0.187356        -0.559125
 H         1.884806         0.717545         0.839139
 H        -2.471772         1.696436        -0.472255
 H        -3.403925        -0.174977         1.384117
 H        -3.048897        -1.301539        -0.816775
 H        -5.315955        -0.790384        -0.810284
 H        -4.952153         0.942954        -0.613583
 H        -4.798336        -0.899183        -3.173969
 H        -4.733341         1.104853        -3.386049
