19
Iteration:  4433charge 0 multiplicity 1
 C         1.517696        -0.270660         0.478470
 C         0.160233         0.015853         0.084255
 C        -0.924967         0.429649        -0.312739
 C        -2.292384         0.840649        -0.498431
 O        -2.937658         1.536804         0.559302
 C        -3.205368        -0.343232        -0.838920
 C        -4.635200         0.130057        -0.983232
 C        -4.549998        -0.324956        -2.451589
 O        -3.172958        -0.863177        -2.237398
 H         1.929959        -0.779264        -0.476065
 H         2.130078         0.642426         0.718754
 H         1.633747        -0.811160         1.404275
 H        -2.229478         1.578088        -1.372965
 H        -2.480807         2.376311         0.535446
 H        -3.113660        -1.124706        -0.065444
 H        -5.501159        -0.266301        -0.361247
 H        -4.746474         1.247214        -0.985412
 H        -5.281295        -1.160262        -2.658723
 H        -4.505205         0.548089        -3.111005
