19
Iteration:  1396charge 0 multiplicity 1
 C         1.458581        -0.190714         0.385700
 C         0.084352         0.044684         0.023779
 C        -1.086595         0.334336        -0.135515
 C        -2.579250         0.496081        -0.033268
 O        -2.958995        -0.216964         1.169854
 C        -3.274571        -0.289785        -1.126258
 C        -4.745876         0.036383        -1.483371
 C        -4.176427         0.892329        -2.682486
 O        -2.874492         0.291786        -2.432955
 H         1.728918         0.477742         1.240248
 H         1.687515        -1.189364         0.624798
 H         2.190356         0.203568        -0.421687
 H        -2.963524         1.609698        -0.175566
 H        -2.158680        -0.351486         1.623061
 H        -3.086836        -1.352701        -0.899939
 H        -5.203498        -0.834219        -1.946790
 H        -5.310593         0.373355        -0.636862
 H        -4.616597         0.783447        -3.654490
 H        -4.185489         1.954969        -2.406138
