19
Iteration:  2282
 C         1.470011        -0.098122        -0.251322
 C         0.092074         0.062131         0.078473
 C        -1.106913         0.165963         0.261739
 C        -2.493117         0.533798         0.024998
 O        -3.347015         0.300335         1.227617
 C        -3.283935        -0.288819        -0.976972
 C        -4.638380         0.333437        -1.328072
 C        -3.976552         0.387054        -2.760037
 O        -2.685142        -0.129980        -2.356698
 H         1.639073        -1.131988        -0.540860
 H         1.623821         0.306099        -1.221189
 H         2.183586         0.231252         0.425915
 H        -2.547241         1.663293        -0.238085
 H        -4.227495         0.586542         1.140639
 H        -3.373827        -1.342216        -0.651019
 H        -5.583563        -0.188937        -1.260177
 H        -4.798560         1.311616        -0.853283
 H        -4.574873        -0.013620        -3.693051
 H        -3.669304         1.451898        -3.083904
