19
Iteration:  4789
 C         1.213357        -0.727007         0.074160
 C         0.121583         0.176409        -0.373359
 C        -0.987523         0.689703        -0.266955
 C        -2.419738         1.099739        -0.355722
 O        -3.019207         1.636915         0.761975
 C        -3.311546        -0.055638        -0.640092
 C        -4.677508         0.155497        -1.321027
 C        -4.090864        -0.710963        -2.455290
 O        -2.903294        -0.865508        -1.790086
 H         1.129086        -1.936746        -0.094520
 H         2.189611        -0.337403        -0.297249
 H         1.190178        -0.766271         1.246771
 H        -2.440902         1.842901        -1.191717
 H        -2.327654         1.937229         1.306878
 H        -3.479514        -0.693503         0.299160
 H        -5.532030        -0.216860        -0.767703
 H        -4.848290         1.229078        -1.408680
 H        -4.514723        -1.709336        -2.534392
 H        -3.867714        -0.442718        -3.523641
