19
Iteration:  1564
 C         1.399059         0.150567        -0.393566
 C         0.039060        -0.047417        -0.009253
 C        -1.152086        -0.082665         0.303103
 C        -2.608937         0.312068         0.211760
 O        -3.442250        -0.085634         1.314607
 C        -3.265183        -0.285619        -1.053766
 C        -4.611941         0.269798        -1.544480
 C        -3.846267         0.612109        -2.821525
 O        -2.584130         0.341065        -2.184241
 H         1.849366        -0.572435        -1.072462
 H         1.453937         1.181145        -1.013126
 H         1.933278         0.051027         0.540161
 H        -2.673596         1.341875         0.162430
 H        -3.538150         0.675919         1.822777
 H        -3.341520        -1.395973        -0.864832
 H        -5.450506        -0.431965        -1.637220
 H        -4.820495         1.110463        -0.846978
 H        -3.867996        -0.077969        -3.648900
 H        -3.659796         1.626625        -3.286687
