19
Iteration:  2627
 C         1.594845        -0.395552         0.285383
 C         0.188696         0.212353         0.177150
 C        -0.988897         0.412172        -0.095703
 C        -2.460893         0.685979        -0.200473
 O        -3.187852         0.528468         1.086931
 C        -3.213852        -0.332670        -1.038123
 C        -4.657773         0.137383        -1.178490
 C        -4.377432         0.239702        -2.727338
 O        -2.940689        -0.097784        -2.533228
 H         1.576320        -1.399018        -0.121920
 H         2.152802         0.141601        -0.429801
 H         2.078530        -0.596388         1.337259
 H        -2.565635         1.698219        -0.703386
 H        -2.612599         0.745916         1.799240
 H        -2.828409        -1.339378        -0.757949
 H        -5.406813        -0.692731        -1.045783
 H        -5.107470         1.069236        -0.676914
 H        -4.837479        -0.553424        -3.328967
 H        -4.503986         1.289073        -3.080136
