19
Iteration:  1164charge 0 multiplicity 1
 C         1.397916        -0.442017         0.053740
 C         0.009396         0.030928         0.204353
 C        -1.080890         0.660839         0.104185
 C        -2.657984         0.527460         0.136919
 O        -3.087338        -0.297857         1.163895
 C        -3.072381        -0.080135        -1.204198
 C        -4.545410        -0.103376        -1.434219
 C        -4.185567         0.518949        -2.849380
 O        -2.844800         0.749953        -2.373296
 H         1.263618        -1.554367        -0.401341
 H         1.895586         0.227509        -0.603390
 H         1.865338        -0.620312         1.067713
 H        -3.172385         1.466717         0.403758
 H        -2.479524        -0.994816         1.397492
 H        -2.643651        -1.057677        -1.041333
 H        -5.063362        -1.081695        -1.284067
 H        -5.166607         0.676841        -0.923034
 H        -4.218231        -0.202916        -3.712036
 H        -4.836126         1.337426        -3.158094
