19
Iteration:  3393charge 0 multiplicity 1
 C         1.308063        -0.392848        -0.340416
 C        -0.084892         0.063297        -0.229520
 C        -1.215984         0.519386        -0.002067
 C        -2.656691         0.886676         0.038860
 O        -3.138681         1.023166         1.338846
 C        -3.368830        -0.225628        -0.754504
 C        -4.568332         0.303296        -1.633095
 C        -3.858245        -0.415546        -2.741845
 O        -2.634881        -0.393103        -1.955742
 H         2.053371         0.421193        -0.338801
 H         1.585740        -0.968615         0.606645
 H         1.459514        -1.095258        -1.093049
 H        -2.767835         1.798744        -0.561195
 H        -2.258710         1.044084         1.845522
 H        -3.458535        -1.163568        -0.275090
 H        -5.514830        -0.153004        -1.307153
 H        -4.646520         1.392134        -1.646970
 H        -4.140255        -1.482194        -3.120906
 H        -3.690538         0.035052        -3.737071
