19
Iteration:  3533charge 0 multiplicity 1
 C         1.443207        -0.244641        -0.337231
 C        -0.021870         0.003688        -0.047715
 C        -1.126476         0.446358         0.130284
 C        -2.487138         0.878425         0.008029
 O        -3.076244         1.041804         1.279787
 C        -3.442268        -0.115146        -0.790258
 C        -4.730140         0.269299        -1.665291
 C        -3.909921        -0.374993        -2.819816
 O        -2.795335        -0.634097        -1.935751
 H         1.975854        -1.122889         0.241872
 H         1.658425        -0.531189        -1.404488
 H         1.955616         0.756778        -0.287611
 H        -2.535461         1.791632        -0.645797
 H        -2.616830         1.843854         1.608996
 H        -3.514448        -1.046622        -0.145091
 H        -5.695934        -0.249067        -1.426918
 H        -4.879265         1.381621        -1.766640
 H        -4.330417        -1.264402        -3.159992
 H        -3.869663         0.316554        -3.697538
