19
Iteration:  3291charge 0 multiplicity 1
 C         1.504036        -0.310873         0.003962
 C         0.122385         0.146468         0.108854
 C        -1.073519         0.374502         0.151035
 C        -2.428404         0.746307        -0.172931
 O        -3.099922         1.002241         1.135770
 C        -3.175807        -0.366217        -0.963803
 C        -4.665138         0.189683        -1.254243
 C        -4.301412        -0.037822        -2.705080
 O        -2.910265        -0.490839        -2.405468
 H         1.806009        -0.694232        -1.004863
 H         2.198061         0.479222         0.178804
 H         1.778549        -1.081610         0.700147
 H        -2.425966         1.586351        -0.864882
 H        -3.542141         1.833390         0.989799
 H        -3.147936        -1.334253        -0.574848
 H        -5.570400        -0.345006        -0.879019
 H        -4.874668         1.295871        -1.177744
 H        -4.812752        -0.951398        -3.196543
 H        -4.120121         0.883098        -3.331671
