19
Iteration:  1964charge 0 multiplicity 1
 C         1.536706        -0.401594         0.361189
 C         0.187955         0.176534         0.186858
 C        -1.033474         0.388901         0.017637
 C        -2.435067         0.597598        -0.099310
 O        -3.124084         0.099104         1.056488
 C        -3.096178        -0.257167        -1.242407
 C        -4.711907        -0.038110        -1.281320
 C        -4.383584         0.556838        -2.657386
 O        -2.948578         0.259155        -2.569456
 H         1.474803        -1.255271        -0.375854
 H         2.366284         0.236204         0.067943
 H         1.735921        -0.692554         1.347177
 H        -2.632732         1.717387        -0.392020
 H        -3.163219         0.709906         1.772921
 H        -2.703824        -1.305209        -1.153623
 H        -5.225185        -1.044200        -1.388541
 H        -5.057375         0.531393        -0.378439
 H        -4.928533         0.172256        -3.612850
 H        -4.566641         1.684575        -2.585746
