19
Iteration:  4082charge 0 multiplicity 1
 C         1.453027        -0.349866        -0.173762
 C        -0.053597        -0.200499        -0.036111
 C        -1.123233         0.426120         0.029583
 C        -2.427374         0.978837        -0.278663
 O        -2.962314         1.693256         0.832088
 C        -3.418826        -0.331196        -0.638184
 C        -4.660991         0.256684        -1.381081
 C        -3.930277        -0.269730        -2.689662
 O        -2.966358        -1.002617        -1.831386
 H         1.560730         0.341037        -1.121641
 H         2.030234         0.149531         0.684202
 H         1.903680        -1.318412        -0.442814
 H        -2.327952         1.710492        -1.209383
 H        -3.586095         1.105760         1.297584
 H        -3.353165        -0.872923         0.293504
 H        -5.528583        -0.389175        -1.225563
 H        -4.950239         1.269618        -1.099098
 H        -4.544494        -0.931995        -3.355944
 H        -3.500488         0.523331        -3.273884
