19
Iteration:  3090
 C         1.552658        -0.202765         0.322843
 C         0.164366         0.100505         0.218755
 C        -0.991169         0.302661        -0.002201
 C        -2.348857         0.643810        -0.317509
 O        -2.964072         1.009211         0.995314
 C        -3.227287        -0.319064        -1.043974
 C        -4.782359        -0.080794        -1.187830
 C        -4.497677         0.048059        -2.723669
 O        -2.988992        -0.186367        -2.438216
 H         2.114045         0.447422         0.858027
 H         1.786866        -1.135266         0.657530
 H         1.922944        -0.130107        -0.726393
 H        -2.221156         1.664418        -0.852605
 H        -2.830224         0.233727         1.550772
 H        -3.058253        -1.318510        -0.786073
 H        -5.141337        -1.106718        -0.934570
 H        -5.299400         0.767759        -0.758306
 H        -4.850364        -0.815328        -3.409108
 H        -4.701077         1.095084        -3.185931
