19
Iteration:   620
 C         1.554513        -0.123487         0.415464
 C         0.134886         0.027342         0.196257
 C        -1.045855         0.173199         0.053173
 C        -2.439138         0.295956        -0.085528
 O        -3.258614        -0.455298         0.963195
 C        -3.013672        -0.188633        -1.406521
 C        -4.573148        -0.033890        -1.332745
 C        -4.451374         0.993923        -2.424402
 O        -2.904862         0.741505        -2.596086
 H         1.970566         0.662675         1.012556
 H         1.664888        -1.026963         1.103847
 H         2.136697        -0.106313        -0.612407
 H        -2.978608         1.196887         0.100137
 H        -2.654773        -1.272114         1.159874
 H        -2.637638        -1.226267        -1.600164
 H        -5.136279        -0.947656        -1.496947
 H        -5.092614         0.425501        -0.462581
 H        -5.069870         0.638311        -3.343343
 H        -4.673926         2.107384        -2.210729
