19
Iteration:  3121charge 0 multiplicity 1
 C         1.573141        -0.238537         0.448449
 C         0.137362         0.102135         0.254054
 C        -0.959881         0.430316        -0.195265
 C        -2.389593         0.696470        -0.348282
 O        -3.058603         0.881165         1.043604
 C        -3.148495        -0.402566        -1.106787
 C        -4.638378        -0.009421        -1.093758
 C        -4.507998         0.136794        -2.643426
 O        -3.065213        -0.334226        -2.567298
 H         2.029914         0.086415         1.375473
 H         1.870551        -1.260850         0.174652
 H         2.067419         0.308719        -0.417160
 H        -2.547609         1.577517        -0.972294
 H        -2.343390         1.415058         1.506321
 H        -2.897243        -1.462898        -0.901159
 H        -5.288690        -0.814723        -0.704126
 H        -4.979382         0.906743        -0.650159
 H        -5.107914        -0.524698        -3.256193
 H        -4.712505         1.196086        -3.038328
