19
Iteration:  4217charge 0 multiplicity 1
 C         1.342108        -0.435756         0.261051
 C         0.003147        -0.103122        -0.155231
 C        -1.013775         0.516987        -0.358979
 C        -2.345434         1.066534        -0.345695
 O        -2.721574         1.345370         0.957780
 C        -3.425250        -0.006493        -0.754184
 C        -4.809539         0.153203        -1.404374
 C        -4.259494        -0.654332        -2.610602
 O        -2.904715        -0.621500        -1.962654
 H         1.532917         0.254243         1.161325
 H         1.532521        -1.459852         0.676286
 H         1.946933        -0.137692        -0.630025
 H        -2.444902         2.026635        -0.899655
 H        -2.597703         2.303771         1.253547
 H        -3.261597        -0.710227         0.008396
 H        -5.496251        -0.550588        -0.907093
 H        -5.238550         1.165798        -1.427666
 H        -4.644532        -1.664739        -2.513286
 H        -4.290552        -0.485364        -3.701548
