19
Iteration:  4573charge 0 multiplicity 1
 C         1.505140        -0.317272         0.197820
 C         0.104394         0.018735        -0.089339
 C        -1.064917         0.305290        -0.188926
 C        -2.369390         0.906288        -0.322915
 O        -2.884480         1.710846         0.678005
 C        -3.346846        -0.300383        -0.706426
 C        -4.704185         0.270974        -1.257488
 C        -4.374423        -0.544249        -2.525788
 O        -3.007788        -0.849677        -2.035360
 H         1.872679         0.587061         0.613643
 H         1.513349        -1.098831         1.014414
 H         2.220888        -0.841201        -0.509019
 H        -2.234036         1.403260        -1.310802
 H        -2.129231         1.959779         1.304818
 H        -3.381003        -1.017627         0.178340
 H        -5.749134         0.044425        -0.911889
 H        -4.672550         1.385072        -1.397379
 H        -4.938541        -1.470702        -2.524306
 H        -4.316620        -0.033609        -3.502046
