19
Iteration:  4190
 C         1.456630        -0.434316         0.105467
 C        -0.037986        -0.061512        -0.049412
 C        -1.085036         0.411308        -0.366403
 C        -2.428657         0.977836        -0.293419
 O        -2.863585         1.456537         1.011188
 C        -3.436396        -0.052513        -0.793601
 C        -4.742106         0.196732        -1.395596
 C        -4.157986        -0.547000        -2.601770
 O        -2.888490        -0.769442        -1.917843
 H         1.857597         0.466112         0.574426
 H         1.651618        -1.226206         0.795828
 H         1.866117        -0.476914        -0.895486
 H        -2.453551         1.902192        -0.863161
 H        -2.463746         2.386695         1.061585
 H        -3.272623        -0.785277         0.036984
 H        -5.557242        -0.249960        -0.832058
 H        -4.860782         1.281134        -1.530290
 H        -4.524441        -1.510125        -3.083327
 H        -4.122008         0.091991        -3.484886
