19
Iteration:  4170
 C         1.434105        -0.398416        -0.027285
 C         0.064247         0.087895        -0.107481
 C        -1.126004         0.434122        -0.048137
 C        -2.405925         0.900553        -0.326863
 O        -2.920246         1.528601         0.951585
 C        -3.401338        -0.260429        -0.643265
 C        -4.689422         0.282156        -1.474813
 C        -4.135557        -0.437706        -2.617690
 O        -2.939536        -0.860034        -1.953021
 H         2.269224         0.267283         0.419147
 H         1.349949        -1.167216         0.820973
 H         1.631523        -0.988464        -0.883790
 H        -2.625094         1.612167        -1.106468
 H        -2.267392         2.118409         1.303321
 H        -3.520992        -1.027084         0.048065
 H        -5.640561        -0.177380        -1.204807
 H        -4.805100         1.361785        -1.359411
 H        -4.687792        -1.312377        -2.993772
 H        -3.918468         0.084809        -3.537034
