19
Iteration:  3072charge 0 multiplicity 1
 C         1.663766        -0.197813         0.251295
 C         0.206285         0.061565         0.106752
 C        -0.996326         0.169948        -0.051290
 C        -2.409352         0.765506        -0.115678
 O        -3.035596         1.075263         1.099326
 C        -3.244524        -0.267954        -1.022334
 C        -4.773786        -0.164810        -1.236584
 C        -4.403037        -0.002026        -2.759539
 O        -2.996514        -0.141175        -2.476663
 H         2.157856         0.722951         0.772473
 H         1.769152        -1.089433         0.993082
 H         2.199108        -0.633063        -0.605518
 H        -2.440901         1.564036        -0.859308
 H        -3.538687         0.333845         1.405372
 H        -2.963069        -1.363683        -0.754857
 H        -5.515155        -0.927327        -1.048271
 H        -5.199696         0.795481        -0.838164
 H        -4.866077        -0.814236        -3.332946
 H        -4.691435         0.873321        -3.241600
