19
Iteration:  2369
 C         1.471974        -0.319986         0.129938
 C         0.034733        -0.024012        -0.034915
 C        -1.087874         0.391517        -0.221557
 C        -2.605849         0.640807         0.013976
 O        -3.007933         0.494615         1.332619
 C        -3.236748        -0.287218        -1.018019
 C        -4.726317        -0.109312        -1.425888
 C        -4.128471         0.391566        -2.736754
 O        -2.760324         0.092947        -2.305373
 H         1.891240        -0.391729        -0.928472
 H         1.815000         0.620127         0.794808
 H         1.790024        -1.288025         0.513382
 H        -2.766257         1.599967        -0.431494
 H        -3.924890         0.692806         1.441803
 H        -2.964202        -1.339618        -0.811486
 H        -5.388539        -0.936407        -1.592227
 H        -5.246069         0.629353        -0.812287
 H        -4.581035         0.100221        -3.720495
 H        -4.070444         1.475139        -2.834384
