19
Iteration:  2876
 C         1.460014        -0.274547        -0.230410
 C         0.027194         0.064652        -0.029005
 C        -1.172931         0.304705        -0.036095
 C        -2.562497         0.779443         0.107135
 O        -3.138087         0.755522         1.512508
 C        -3.362738        -0.093074        -0.862859
 C        -4.715821         0.226415        -1.612335
 C        -3.943223        -0.086242        -2.860820
 O        -2.712127        -0.284566        -2.190287
 H         1.771379        -1.218505         0.333015
 H         1.487081        -0.434461        -1.359744
 H         2.159278         0.439922         0.021297
 H        -2.530846         1.950379        -0.250870
 H        -3.017563        -0.169951         1.651022
 H        -3.358111        -1.097675        -0.411157
 H        -5.566527        -0.448438        -1.553604
 H        -5.008809         1.258000        -1.681626
 H        -4.279070        -0.981258        -3.495730
 H        -3.902939         0.878822        -3.561042
