19
Iteration:  1520charge 0 multiplicity 1
 C         1.394221         0.148542        -0.244020
 C        -0.028666        -0.023451        -0.031329
 C        -1.205596        -0.074634         0.291007
 C        -2.587321         0.322781         0.137866
 O        -3.339218        -0.044231         1.335264
 C        -3.249078        -0.343064        -1.147870
 C        -4.633279         0.253259        -1.478188
 C        -3.880601         0.721487        -2.822921
 O        -2.619474         0.255153        -2.246716
 H         1.945584        -0.770933        -0.207183
 H         1.715768         0.470833        -1.357751
 H         1.735210         0.824775         0.540079
 H        -2.664532         1.498355        -0.125636
 H        -2.862118         0.101438         2.113890
 H        -2.878691        -1.373955        -1.079306
 H        -5.382225        -0.531894        -1.641780
 H        -5.052093         1.070393        -0.850650
 H        -4.158115         0.197134        -3.720742
 H        -3.872479         1.822497        -2.998198
