19
Iteration:  1355
 C         1.600277        -0.156292         0.403517
 C         0.129764        -0.026118         0.255658
 C        -1.024095         0.124974        -0.185855
 C        -2.458141         0.332794        -0.059578
 O        -3.099132        -0.075083         1.225675
 C        -3.185889        -0.323077        -1.338505
 C        -4.652813        -0.026893        -1.464153
 C        -4.424715         0.866530        -2.647219
 O        -2.966491         0.526841        -2.499046
 H         2.032776         0.760749         0.709256
 H         1.844862        -0.851088         1.293230
 H         2.078423        -0.402216        -0.584267
 H        -2.590697         1.388425        -0.047076
 H        -2.685227         0.371493         2.027615
 H        -2.928236        -1.363088        -1.549260
 H        -5.223985        -0.954954        -1.624089
 H        -5.100938         0.610025        -0.713201
 H        -4.784533         0.521490        -3.603442
 H        -4.500629         1.943096        -2.581224
