19
Iteration:  2607
 C         1.574598        -0.327822         0.264236
 C         0.210902         0.042139         0.125869
 C        -0.961798         0.372972         0.011528
 C        -2.390536         0.677795        -0.173488
 O        -3.195975         0.615524         1.068476
 C        -3.181047        -0.219239        -1.145520
 C        -4.674363         0.052164        -1.231823
 C        -4.403157         0.180375        -2.701991
 O        -2.999116        -0.027496        -2.496502
 H         1.626046        -1.389476         0.370117
 H         2.260460        -0.026348        -0.464093
 H         1.848303         0.151361         1.272111
 H        -2.374002         1.656511        -0.526664
 H        -2.898286        -0.110732         1.679878
 H        -2.893208        -1.237029        -0.773920
 H        -5.399794        -0.652666        -0.792226
 H        -4.850546         1.064402        -0.778894
 H        -4.867224        -0.689251        -3.270581
 H        -4.521435         1.255361        -3.137138
