19
Iteration:  4770
 C         1.172778        -0.626797         0.045784
 C         0.001419         0.129490        -0.254166
 C        -1.041095         0.664980        -0.299881
 C        -2.414605         1.119514        -0.401651
 O        -2.871270         1.756941         0.904209
 C        -3.315412        -0.162045        -0.696225
 C        -4.665447         0.188322        -1.375913
 C        -4.171470        -0.760274        -2.472923
 O        -2.786202        -0.915180        -1.787595
 H         0.968344        -1.653542         0.018654
 H         1.992697        -0.591061        -0.611623
 H         1.306721        -0.590813         1.119080
 H        -2.699619         1.766089        -1.208546
 H        -2.235488         1.411910         1.523447
 H        -3.443014        -0.720482         0.182602
 H        -5.608790        -0.219799        -1.015340
 H        -4.814102         1.145702        -1.764945
 H        -4.726413        -1.707150        -2.705635
 H        -4.093701        -0.162885        -3.409596
