19
Iteration:  2970charge 0 multiplicity 1
 C         1.438495        -0.478566        -0.099936
 C         0.117496         0.271034         0.022678
 C        -1.027070         0.654894         0.176050
 C        -2.515819         0.822993         0.003896
 O        -3.070562         0.592941         1.252327
 C        -3.231130        -0.161694        -0.926323
 C        -4.703633         0.167522        -1.454443
 C        -4.162598        -0.244082        -2.867907
 O        -2.853842        -0.200646        -2.337087
 H         1.786954        -0.840899        -1.069258
 H         2.189883         0.163428         0.266071
 H         1.447962        -1.391349         0.605458
 H        -2.803247         1.855707        -0.408233
 H        -3.408850         1.409621         1.728138
 H        -3.287765        -1.132695        -0.384440
 H        -5.459239        -0.477748        -0.919050
 H        -4.946614         1.263700        -1.317276
 H        -4.441387        -1.245910        -3.275026
 H        -4.359495         0.501903        -3.583783
