19
Iteration:  4843
 C         1.263520        -0.569064        -0.023022
 C        -0.056596        -0.018205         0.113843
 C        -1.028337         0.648580        -0.082749
 C        -2.352788         1.038821        -0.453612
 O        -2.835423         1.824719         0.707266
 C        -3.214643        -0.215080        -0.663782
 C        -4.673787         0.084725        -1.223972
 C        -4.295041        -0.642898        -2.512544
 O        -2.906351        -0.912737        -1.935808
 H         1.452879        -0.845657        -1.123858
 H         2.082145         0.106289        -0.054878
 H         1.515739        -1.513544         0.437953
 H        -2.368304         1.618843        -1.410114
 H        -3.360931         2.529016         0.330691
 H        -3.139323        -0.893839         0.291093
 H        -5.479946        -0.230148        -0.567495
 H        -4.692385         1.162977        -1.395961
 H        -4.729038        -1.591610        -2.712926
 H        -4.203591        -0.082268        -3.446159
