19
Iteration:  4049charge 0 multiplicity 1
 C         1.384000        -0.407791        -0.055203
 C         0.042476         0.054378        -0.200881
 C        -1.184139         0.224199        -0.107898
 C        -2.484095         0.870250        -0.173761
 O        -2.898702         1.712280         0.880279
 C        -3.498834        -0.256336        -0.587222
 C        -4.774160         0.170701        -1.471295
 C        -3.960543        -0.345762        -2.692891
 O        -2.851447        -0.787950        -1.817734
 H         1.899616        -0.329205        -1.126133
 H         2.117741         0.336387         0.429164
 H         1.532332        -1.447135         0.334380
 H        -2.212067         1.641726        -1.031504
 H        -2.365843         1.416697         1.714651
 H        -3.628801        -1.076833         0.176366
 H        -5.576592        -0.566014        -1.405057
 H        -5.160181         1.194683        -1.424461
 H        -4.370708        -1.266914        -3.222437
 H        -3.623686         0.366101        -3.434613
