19
Iteration:  4754charge 0 multiplicity 1
 C         1.209522        -0.649354         0.049733
 C        -0.091230         0.114143        -0.083952
 C        -1.115852         0.682810        -0.380385
 C        -2.505708         1.144494        -0.314147
 O        -2.722104         1.796928         0.914705
 C        -3.355940        -0.118346        -0.676965
 C        -4.649992         0.134380        -1.403125
 C        -4.088177        -0.806826        -2.551420
 O        -2.871324        -0.936608        -1.864306
 H         1.037240        -1.842968        -0.063436
 H         1.831750        -0.395685        -0.916122
 H         1.850657        -0.220214         0.857089
 H        -2.655129         1.973207        -1.065913
 H        -2.432323         1.246034         1.622891
 H        -3.233966        -0.787553         0.289460
 H        -5.532463        -0.070196        -0.757108
 H        -4.609491         1.225723        -1.759536
 H        -4.650707        -1.749954        -2.583271
 H        -4.026704        -0.376678        -3.573547
