19
Iteration:  4621
 C         1.519077        -0.487714         0.006657
 C         0.227108         0.153203         0.257200
 C        -0.902700         0.441020        -0.035938
 C        -2.302313         1.035108        -0.419215
 O        -3.066394         1.538090         0.739910
 C        -3.320188        -0.085151        -0.751885
 C        -4.662506         0.326164        -1.450999
 C        -4.379360        -0.680121        -2.517814
 O        -3.115193        -0.975225        -1.946446
 H         2.490388        -0.264764         0.592486
 H         1.411753        -1.485770        -0.319907
 H         1.715835        -0.201397        -1.000286
 H        -2.132619         1.804577        -1.188841
 H        -2.630288         2.327226         0.975688
 H        -3.371880        -0.547357         0.191840
 H        -5.549812         0.073978        -0.862000
 H        -4.862809         1.371636        -1.602356
 H        -5.057135        -1.538687        -2.522738
 H        -4.351291        -0.213769        -3.476548
