19
Iteration:  4227
 C         1.334293        -0.454538         0.299884
 C         0.018833        -0.033722        -0.191731
 C        -1.056389         0.574052        -0.332075
 C        -2.396076         1.034858        -0.368964
 O        -2.703530         1.356724         1.023295
 C        -3.349601        -0.025333        -0.828971
 C        -4.794447         0.144185        -1.380356
 C        -4.262275        -0.723426        -2.548761
 O        -2.947498        -0.614572        -2.051902
 H         1.539690         0.122580         1.311157
 H         1.427629        -1.589682         0.396397
 H         2.290980        -0.253069        -0.206897
 H        -2.425739         1.892580        -1.065159
 H        -2.305711         2.294850         1.037038
 H        -3.520588        -0.740729        -0.058685
 H        -5.597244        -0.293379        -0.758171
 H        -5.094161         1.211699        -1.469183
 H        -4.569661        -1.769986        -2.502492
 H        -4.344947        -0.173509        -3.490064
