19
Iteration:  3022charge 0 multiplicity 1
 C         1.468956        -0.248604         0.077472
 C         0.058740        -0.010009         0.032850
 C        -1.116790         0.331803         0.041571
 C        -2.429444         0.813706        -0.195548
 O        -3.136408         0.905528         1.144890
 C        -3.155813        -0.264536        -1.011521
 C        -4.707804         0.019452        -1.248657
 C        -4.264072        -0.174164        -2.715074
 O        -2.800230        -0.059036        -2.354516
 H         1.915325         0.444305        -0.601111
 H         2.031249        -0.151644         0.982569
 H         1.659395        -1.230809        -0.312902
 H        -2.528735         1.797429        -0.726249
 H        -2.990553         0.040039         1.680459
 H        -3.023442        -1.225288        -0.560227
 H        -5.510814        -0.664740        -0.904554
 H        -4.736601         1.074698        -0.923263
 H        -4.546499        -1.182561        -3.124811
 H        -4.618513         0.720784        -3.399514
