19
Iteration:  2359
 C         1.447924        -0.236724         0.032802
 C        -0.000771        -0.076758        -0.001914
 C        -1.166452         0.326613        -0.140819
 C        -2.558892         0.586012        -0.029410
 O        -3.032612         0.502585         1.358580
 C        -3.218490        -0.304517        -1.016868
 C        -4.720201        -0.048902        -1.431180
 C        -4.099983         0.458590        -2.699218
 O        -2.738419         0.057742        -2.367775
 H         2.004281        -0.427631        -0.921104
 H         2.069349         0.613486         0.580325
 H         1.572637        -1.030890         0.739774
 H        -2.635091         1.654253        -0.204840
 H        -3.902319         0.937473         1.505270
 H        -2.991188        -1.347070        -0.743676
 H        -5.145483        -1.037252        -1.502995
 H        -5.340116         0.659034        -0.866573
 H        -4.347218        -0.254205        -3.602303
 H        -4.229450         1.577280        -2.865079
