19
Iteration:  4636
 C         1.469337        -0.483070        -0.097842
 C         0.123371         0.152313         0.223037
 C        -0.993468         0.485683        -0.055160
 C        -2.304035         0.944818        -0.405388
 O        -3.059747         1.548588         0.749901
 C        -3.305191        -0.096722        -0.842427
 C        -4.643570         0.426157        -1.350778
 C        -4.354618        -0.689780        -2.509683
 O        -2.999312        -0.988680        -1.877680
 H         2.004707        -0.502650         0.835695
 H         1.344285        -1.587722        -0.222466
 H         2.019606         0.074067        -0.935319
 H        -2.304511         1.744182        -1.158013
 H        -2.630766         2.371908         1.081955
 H        -3.508888        -0.834860        -0.042027
 H        -5.427379         0.293087        -0.596552
 H        -4.420491         1.378447        -1.864630
 H        -4.986041        -1.621584        -2.464029
 H        -4.141523        -0.381817        -3.593020
