19
Iteration:   799
 C         1.535820        -0.146141        -0.129705
 C         0.175299         0.041626         0.378462
 C        -1.037078         0.150303         0.279458
 C        -2.532914         0.340382         0.116493
 O        -3.438145        -0.432900         1.079394
 C        -3.053026        -0.107019        -1.234360
 C        -4.603935         0.146235        -1.403703
 C        -4.218458         0.575678        -2.812452
 O        -2.818237         0.838252        -2.356048
 H         1.726940        -1.047184        -0.821903
 H         1.861464         0.742457        -0.777154
 H         2.268817        -0.225357         0.555410
 H        -2.856247         1.368117         0.164490
 H        -3.041518        -0.430760         2.038060
 H        -2.827297        -1.168634        -1.598807
 H        -5.170042        -0.783473        -1.460410
 H        -5.035238         0.822497        -0.660869
 H        -4.247022        -0.341921        -3.524098
 H        -4.862286         1.332617        -3.279698
