19
Iteration:  2500charge 0 multiplicity 1
 C         1.647492        -0.357743         0.302152
 C         0.190797         0.007122         0.079085
 C        -1.006363         0.247936        -0.012835
 C        -2.438053         0.659523        -0.069624
 O        -3.141672         0.546529         1.266115
 C        -3.134060        -0.175182        -1.203042
 C        -4.746796         0.001331        -1.301679
 C        -4.426515         0.043222        -2.763323
 O        -3.009615         0.272358        -2.574597
 H         1.873791         0.125092         1.315510
 H         1.775770        -1.526166         0.354461
 H         2.376708         0.017818        -0.465873
 H        -2.475284         1.832464        -0.403006
 H        -2.648496         1.256185         1.782227
 H        -2.843534        -1.253924        -1.030220
 H        -5.234731        -0.873387        -0.918858
 H        -5.173659         0.927263        -0.961903
 H        -4.564242        -0.874873        -3.295105
 H        -4.801533         0.923697        -3.289186
