19
Iteration:  4205
 C         1.396216        -0.380507         0.200613
 C        -0.025153        -0.177814        -0.068486
 C        -1.004872         0.420847        -0.436550
 C        -2.412906         1.134910        -0.380240
 O        -2.805959         1.381270         1.037098
 C        -3.354358        -0.040351        -0.734617
 C        -4.850730         0.159843        -1.388305
 C        -4.187728        -0.618090        -2.580418
 O        -2.882459        -0.670791        -1.965594
 H         1.929347         0.424479         0.847398
 H         1.562653        -1.443072         0.564506
 H         2.022174        -0.375961        -0.699810
 H        -2.443283         1.904815        -1.157082
 H        -2.689454         2.289596         1.244489
 H        -3.545845        -0.567419         0.141199
 H        -5.669074        -0.324842        -0.829962
 H        -5.233428         1.099134        -1.805533
 H        -4.669764        -1.569194        -2.751002
 H        -4.057568        -0.028026        -3.508111
