19
Iteration:   683
 C         1.475967        -0.389900         0.269305
 C         0.110915         0.134685         0.204289
 C        -1.085552         0.366980         0.094577
 C        -2.595670         0.390272         0.073689
 O        -3.014453        -0.376781         1.220777
 C        -3.038670        -0.139000        -1.367776
 C        -4.588070        -0.254100        -1.617567
 C        -4.433450         0.898316        -2.657544
 O        -2.959980         0.838881        -2.443372
 H         1.735034        -0.569767         1.347671
 H         1.413481        -1.319230        -0.175511
 H         2.308844         0.265795        -0.154203
 H        -2.920940         1.461316         0.119208
 H        -2.249965        -1.058910         1.457745
 H        -2.208122        -0.913365        -1.650393
 H        -4.970688        -1.184857        -2.009586
 H        -5.143147        -0.070381        -0.666714
 H        -4.557378         0.839125        -3.781781
 H        -5.057438         1.844080        -2.383219
