19
Iteration:  3587
 C         1.469994        -0.100758        -0.118178
 C         0.065569         0.041829        -0.084123
 C        -1.121000         0.283044         0.179210
 C        -2.438298         0.694304        -0.127800
 O        -3.124697         1.188086         1.013718
 C        -3.425329        -0.355586        -0.809175
 C        -4.612210         0.320191        -1.409914
 C        -4.118474        -0.271863        -2.738407
 O        -2.842638        -0.611152        -2.082859
 H         1.833977        -1.151983        -0.279275
 H         1.774164         0.518483        -0.955800
 H         2.178399         0.140599         0.750245
 H        -2.420445         1.420544        -1.020839
 H        -2.455942         1.784985         1.495247
 H        -3.596954        -1.271713        -0.381825
 H        -5.462664        -0.178348        -0.906118
 H        -4.496431         1.431880        -1.292246
 H        -4.757849        -1.070650        -3.018428
 H        -4.058764         0.567075        -3.444296
