19
Iteration:  3295
 C         1.512369        -0.320139        -0.012448
 C         0.116851         0.138806         0.145308
 C        -1.065899         0.381078         0.147474
 C        -2.430316         0.737705        -0.182589
 O        -3.123316         1.015154         1.161805
 C        -3.164706        -0.372531        -0.997692
 C        -4.661370         0.201004        -1.272252
 C        -4.291456        -0.045006        -2.694152
 O        -2.902836        -0.500408        -2.400577
 H         1.688404        -0.529874        -1.116764
 H         2.297943         0.524213         0.078275
 H         1.723061        -1.176598         0.624680
 H        -2.447218         1.667217        -0.855430
 H        -3.574740         1.891644         1.041414
 H        -3.233606        -1.403666        -0.460868
 H        -5.524733        -0.316728        -0.852807
 H        -4.782626         1.275667        -1.192580
 H        -4.783874        -0.900695        -3.187525
 H        -4.217752         0.838991        -3.323258
