19
Iteration:  3139charge 0 multiplicity 1
 C         1.500389        -0.198877         0.501437
 C         0.215704         0.115032         0.052849
 C        -0.930284         0.447685        -0.189041
 C        -2.336051         0.718340        -0.301405
 O        -3.031699         0.787639         0.951969
 C        -3.165717        -0.344235        -1.067975
 C        -4.638792         0.001921        -1.094588
 C        -4.494334         0.142706        -2.595136
 O        -3.122389        -0.375486        -2.555764
 H         1.344643        -0.220455         1.665709
 H         1.808067        -1.305902         0.193124
 H         2.389849         0.317877         0.183412
 H        -2.347335         1.758648        -0.698480
 H        -3.007695         1.729361         1.269165
 H        -2.907289        -1.377390        -0.626049
 H        -5.258774        -0.855773        -0.842281
 H        -4.817011         0.857679        -0.395469
 H        -5.168629        -0.443588        -3.216556
 H        -4.474131         1.111896        -3.038713
