19
Iteration:   720
 C         1.415040        -0.390183         0.212089
 C         0.049483         0.069565        -0.036820
 C        -1.122382         0.406463        -0.056455
 C        -2.576586         0.411408         0.057614
 O        -3.183527        -0.355591         1.147357
 C        -3.019583        -0.140072        -1.255787
 C        -4.538932        -0.325596        -1.570547
 C        -4.245979         0.792648        -2.678820
 O        -2.896862         0.966724        -2.144537
 H         1.364993        -1.016511         1.083551
 H         1.992724        -0.956483        -0.659267
 H         2.196826         0.402042         0.408522
 H        -2.964812         1.417475         0.229798
 H        -2.387689        -0.291137         1.772485
 H        -2.398622        -1.144497        -1.473707
 H        -4.918895        -1.284596        -1.995214
 H        -5.094855         0.017411        -0.696613
 H        -4.163266         0.238493        -3.711730
 H        -4.972227         1.726829        -2.527834
