19
Iteration:  2994charge 0 multiplicity 1
 C         1.445906        -0.366768        -0.059066
 C         0.105359         0.128100         0.162239
 C        -1.042922         0.526946         0.022176
 C        -2.439292         0.830405        -0.016422
 O        -3.189135         0.727399         1.240772
 C        -3.181820        -0.178467        -1.017062
 C        -4.731974         0.107004        -1.338542
 C        -4.269946        -0.215246        -2.822369
 O        -2.768220        -0.172291        -2.412343
 H         1.923721        -0.183808        -1.100337
 H         2.196856         0.074743         0.675691
 H         1.473047        -1.514676         0.068373
 H        -2.617277         1.824141        -0.445346
 H        -2.705422         1.120574         2.041188
 H        -3.200843        -1.200530        -0.516097
 H        -5.478726        -0.611141        -0.946656
 H        -4.904317         1.129112        -1.032571
 H        -4.570521        -1.220015        -3.118093
 H        -4.512682         0.487690        -3.522352
