19
Iteration:  4152
 C         1.415367        -0.480258        -0.065949
 C         0.185076         0.241649        -0.125179
 C        -1.045937         0.451242         0.071853
 C        -2.483600         0.806886        -0.190139
 O        -3.035782         1.575176         0.826582
 C        -3.427844        -0.288086        -0.736119
 C        -4.678309         0.299431        -1.352897
 C        -4.095518        -0.381789        -2.717114
 O        -2.964612        -0.948862        -1.897515
 H         2.212873         0.313875        -0.058834
 H         1.723855        -1.112637         0.796901
 H         1.549910        -1.093628        -1.000299
 H        -2.275017         1.453385        -1.154720
 H        -2.313768         1.684034         1.423612
 H        -3.778424        -1.006795         0.147578
 H        -5.679874         0.146443        -0.922217
 H        -4.597756         1.390201        -1.510585
 H        -4.709704        -1.162358        -3.189026
 H        -3.653513         0.342740        -3.472016
