19
Iteration:  1027
 C         1.485921         0.219383        -0.109170
 C         0.063425        -0.006974         0.040955
 C        -1.147479        -0.055793         0.171455
 C        -2.664210         0.161708         0.116880
 O        -3.191859        -0.057419         1.425691
 C        -3.365283        -0.399738        -1.169929
 C        -4.699249         0.232806        -1.635428
 C        -3.965610         0.949480        -2.712483
 O        -2.675310         0.230064        -2.371100
 H         1.960028         0.399000         0.856983
 H         1.891792        -0.826232        -0.480928
 H         1.835591         1.083562        -0.740499
 H        -2.783997         1.256280         0.305718
 H        -2.886628        -0.987327         1.714660
 H        -3.366373        -1.451549        -1.162532
 H        -5.372087        -0.408490        -2.149774
 H        -5.156029         0.796020        -0.833432
 H        -4.156894         0.892390        -3.769555
 H        -3.674477         2.019228        -2.501912
