19
Iteration:  1983
 C         1.572111        -0.370863         0.231912
 C         0.181672         0.157119         0.261997
 C        -0.970127         0.252145        -0.039930
 C        -2.465797         0.515338        -0.036420
 O        -3.220243         0.200597         1.203525
 C        -3.139964        -0.248773        -1.199222
 C        -4.650209        -0.086175        -1.387177
 C        -4.372615         0.558439        -2.727425
 O        -2.960070         0.319622        -2.552636
 H         2.012567        -1.002176        -0.624295
 H         2.216169         0.630683         0.216938
 H         1.732583        -0.975388         1.142561
 H        -2.613895         1.514827        -0.129079
 H        -3.115172         1.030811         1.745266
 H        -2.992375        -1.297514        -1.122052
 H        -5.041770        -1.093813        -1.289370
 H        -5.007641         0.590744        -0.602951
 H        -4.823720         0.078005        -3.520941
 H        -4.438308         1.636049        -2.952997
