19
Iteration:  3422charge 0 multiplicity 1
 C         1.217235        -0.454169        -0.367552
 C        -0.083561         0.166345         0.009059
 C        -1.211237         0.675450        -0.100312
 C        -2.627797         1.035432         0.059754
 O        -2.968104         0.952899         1.446779
 C        -3.393004        -0.031513        -0.803202
 C        -4.627723         0.247294        -1.694278
 C        -3.824842        -0.501080        -2.845402
 O        -2.642340        -0.572623        -1.954489
 H         2.045002         0.315725        -0.177252
 H         1.174107        -1.396325         0.144651
 H         1.225683        -0.746111        -1.506180
 H        -2.861893         2.060918        -0.301031
 H        -2.518189         0.116613         1.676582
 H        -3.611972        -0.982762        -0.146215
 H        -5.445645        -0.430886        -1.301166
 H        -4.929835         1.318424        -1.929582
 H        -4.206767        -1.447267        -3.187329
 H        -3.575020         0.229188        -3.688222
