19
Iteration:   677charge 0 multiplicity 1
 C         1.511399        -0.364423         0.301469
 C         0.112063         0.097315         0.266944
 C        -1.058190         0.422476         0.068754
 C        -2.570088         0.403806         0.085492
 O        -3.025053        -0.394779         1.199511
 C        -3.047092        -0.118989        -1.392861
 C        -4.601685        -0.275439        -1.589986
 C        -4.444264         0.922828        -2.632663
 O        -2.988910         0.815801        -2.485594
 H         1.924929        -0.475127         1.300298
 H         1.563348        -1.429125        -0.202656
 H         2.275025         0.130241        -0.329271
 H        -3.060480         1.369895         0.270295
 H        -2.545328        -1.164674         1.448296
 H        -2.455400        -0.916174        -1.798536
 H        -4.885536        -1.277230        -1.984690
 H        -5.224764         0.017216        -0.746754
 H        -4.665452         0.740309        -3.711393
 H        -4.624502         1.993417        -2.423653
