19
Iteration:  1201charge 0 multiplicity 1
 C         1.311388        -0.460206         0.275732
 C         0.036329         0.121539        -0.170919
 C        -1.116036         0.405664         0.065476
 C        -2.587060         0.502075         0.138068
 O        -2.977988        -0.200336         1.232746
 C        -3.125561        -0.044130        -1.204565
 C        -4.581365        -0.136149        -1.448316
 C        -4.193870         0.407515        -2.834409
 O        -2.900475         0.908268        -2.321368
 H         1.655854        -1.165016        -0.385173
 H         2.218172         0.147526         0.565576
 H         1.109227        -0.919874         1.263330
 H        -2.960379         1.501113         0.202823
 H        -2.432870        -0.950966         1.194236
 H        -2.701701        -1.023521        -1.600833
 H        -4.871578        -1.166847        -1.472841
 H        -5.211597         0.360670        -0.750885
 H        -4.032773        -0.220980        -3.783020
 H        -4.734846         1.343159        -3.136684
