19
Iteration:  4753charge 0 multiplicity 1
 C         1.211525        -0.643250         0.051532
 C        -0.089665         0.107258        -0.073515
 C        -1.122806         0.685346        -0.384495
 C        -2.500271         1.146403        -0.310578
 O        -2.714956         1.795755         0.914750
 C        -3.361612        -0.119845        -0.677816
 C        -4.650737         0.140625        -1.401729
 C        -4.080371        -0.814971        -2.561639
 O        -2.874686        -0.932865        -1.862336
 H         1.067990        -1.821220        -0.072459
 H         1.789754        -0.423485        -0.958066
 H         1.860452        -0.235095         0.854970
 H        -2.678620         1.974205        -1.070074
 H        -2.456417         1.253725         1.633609
 H        -3.207632        -0.783259         0.286429
 H        -5.543886        -0.099858        -0.763245
 H        -4.626614         1.237738        -1.764772
 H        -4.677047        -1.747123        -2.576412
 H        -4.050219        -0.397887        -3.575530
