19
Iteration:   644
 C         1.567136        -0.231862         0.340198
 C         0.091661        -0.003110         0.328493
 C        -1.080237         0.307524         0.125944
 C        -2.483777         0.437434        -0.051488
 O        -3.089735        -0.394775         0.898350
 C        -3.027627        -0.131083        -1.392374
 C        -4.608358        -0.189109        -1.398638
 C        -4.413011         0.981249        -2.533296
 O        -2.987149         0.703258        -2.468357
 H         2.060580         0.231090         1.184952
 H         1.666650        -1.381755         0.574965
 H         2.020365         0.153659        -0.624453
 H        -3.012171         1.361492         0.189240
 H        -2.787112        -1.261727         0.649428
 H        -2.521375        -1.111029        -1.459353
 H        -5.065318        -1.171465        -1.656766
 H        -5.187460         0.196632        -0.546858
 H        -4.985583         0.729238        -3.467016
 H        -4.599649         2.034371        -2.229507
