19
Iteration:   746charge 0 multiplicity 1
 C         1.461889        -0.309506         0.097115
 C         0.044755        -0.061597         0.004737
 C        -1.092271         0.393983         0.115090
 C        -2.555178         0.417600         0.151261
 O        -3.211382        -0.408591         1.107277
 C        -3.034427        -0.043264        -1.214588
 C        -4.584980        -0.253252        -1.506692
 C        -4.209571         0.701127        -2.758463
 O        -2.882381         0.950526        -2.247224
 H         1.668862        -1.338997         0.590014
 H         1.964345        -0.326652        -0.894208
 H         2.060155         0.373356         0.645059
 H        -2.942689         1.453541         0.363495
 H        -3.009360         0.049515         2.006404
 H        -2.546415        -0.940080        -1.467308
 H        -4.866295        -1.273141        -1.787045
 H        -5.264038         0.168499        -0.753314
 H        -4.172558         0.236953        -3.705888
 H        -4.849645         1.555916        -2.889042
