19
Iteration:  4319
 C         1.500016        -0.514172         0.296200
 C         0.140401        -0.051260         0.068041
 C        -0.907007         0.581810        -0.155879
 C        -2.278611         1.087215        -0.408901
 O        -3.055443         1.646524         0.689996
 C        -3.150666        -0.158730        -0.944890
 C        -4.634965         0.075565        -1.021252
 C        -4.588643        -0.625194        -2.412599
 O        -3.021020        -0.740167        -2.354257
 H         1.428142        -1.277276         1.028064
 H         2.071360        -0.726275        -0.616606
 H         2.189897         0.344009         0.836394
 H        -2.303846         2.012191        -1.051129
 H        -3.259232         0.926054         1.253859
 H        -2.963627        -0.863882        -0.188559
 H        -5.317004        -0.325038        -0.267939
 H        -4.975758         1.077688        -1.215254
 H        -4.915471        -1.612311        -2.395472
 H        -4.786152        -0.020324        -3.295021
