19
Iteration:  1407charge 0 multiplicity 1
 C         1.433188        -0.187805         0.371856
 C         0.056676         0.124047        -0.021653
 C        -1.081028         0.430073        -0.195284
 C        -2.523745         0.427607        -0.018941
 O        -3.041916        -0.214162         1.218211
 C        -3.296687        -0.291850        -1.124467
 C        -4.754518         0.028784        -1.445705
 C        -4.106920         0.911721        -2.635757
 O        -2.847833         0.228378        -2.475375
 H         1.711736         0.202700         1.383731
 H         1.583410        -1.242042         0.383085
 H         2.110649         0.207015        -0.486072
 H        -2.729280         1.524870         0.334714
 H        -2.281908        -0.665021         1.656316
 H        -2.886702        -1.296976        -1.203134
 H        -5.319111        -0.879814        -1.672952
 H        -5.349639         0.623576        -0.784635
 H        -4.381890         0.721368        -3.657245
 H        -4.039706         2.020194        -2.480585
