19
Iteration:  1515
 C         1.404841         0.145863        -0.220415
 C        -0.006922        -0.030107        -0.051375
 C        -1.170906        -0.042954         0.319583
 C        -2.618388         0.338287         0.142594
 O        -3.320299        -0.051890         1.286960
 C        -3.278353        -0.292534        -1.132674
 C        -4.640060         0.241641        -1.516185
 C        -3.905433         0.707975        -2.785764
 O        -2.634516         0.235435        -2.267182
 H         1.944461        -0.837852        -0.068216
 H         1.513319         0.372346        -1.215554
 H         1.904020         0.891517         0.482361
 H        -2.651456         1.359807         0.046835
 H        -2.697122        -0.013780         2.093270
 H        -2.946646        -1.342545        -0.988140
 H        -5.392491        -0.528178        -1.691196
 H        -4.956740         1.015185        -0.827689
 H        -4.112820         0.243581        -3.799666
 H        -3.843054         1.829438        -2.877993
