19
Iteration:  1745
 C         1.499114        -0.213810         0.089281
 C         0.103793         0.102775         0.084238
 C        -1.108659         0.167971         0.040397
 C        -2.553726         0.430844         0.122009
 O        -3.274458        -0.135864         1.292192
 C        -3.203548        -0.210538        -1.130831
 C        -4.677593         0.116090        -1.425728
 C        -4.142253         0.554565        -2.860651
 O        -2.766508         0.532502        -2.412386
 H         1.999575         0.818903         0.207667
 H         1.844931        -0.952091         0.817048
 H         1.932824        -0.488468        -0.992014
 H        -2.803326         1.432924        -0.063500
 H        -2.557918        -0.208640         2.034287
 H        -2.815872        -1.214902        -1.372322
 H        -5.332136        -0.739176        -1.504855
 H        -5.062622         0.968830        -0.810800
 H        -4.373275        -0.133186        -3.721339
 H        -4.280289         1.556021        -3.160064
