19
Iteration:   598charge 0 multiplicity 1
 C         1.628834        -0.027071         0.503486
 C         0.210688         0.037153         0.085963
 C        -1.023429         0.035694         0.030527
 C        -2.462570         0.178205        -0.039102
 O        -3.224560        -0.506008         1.022181
 C        -3.182868        -0.245115        -1.415474
 C        -4.648418         0.035573        -1.420478
 C        -4.347465         1.059895        -2.519671
 O        -3.000123         0.746045        -2.512994
 H         2.072813         0.950107         0.682174
 H         1.802264        -0.579862         1.513636
 H         2.255527        -0.321295        -0.470501
 H        -2.844470         1.271196         0.071380
 H        -2.534109        -0.730048         1.586598
 H        -2.748984        -1.191520        -1.807143
 H        -5.331985        -0.781013        -1.604624
 H        -4.997473         0.382498        -0.418436
 H        -4.689322         0.841043        -3.613431
 H        -4.586271         2.178261        -2.275290
