19
Iteration:  2297
 C         1.587836        -0.141241        -0.314848
 C         0.139890         0.080635         0.169738
 C        -1.096964         0.138647         0.199170
 C        -2.559640         0.516512         0.104821
 O        -3.386468         0.371856         1.244140
 C        -3.225570        -0.327437        -1.006335
 C        -4.619111         0.258573        -1.412912
 C        -4.022921         0.497219        -2.773795
 O        -2.790934        -0.130866        -2.320544
 H         1.778382        -1.176412        -0.593116
 H         1.868462         0.638131        -0.958587
 H         2.236514        -0.082082         0.593468
 H        -2.536095         1.566095        -0.262857
 H        -4.124231         0.966782         0.960878
 H        -3.124952        -1.379568        -0.689242
 H        -5.430138        -0.507453        -1.308988
 H        -4.932568         1.226123        -0.931963
 H        -4.362169        -0.144524        -3.488596
 H        -4.068275         1.509930        -3.143516
