19
Iteration:     7charge 0 multiplicity 1
 C         1.503434        -0.046262         0.099933
 C         0.104790         0.024220         0.045879
 C        -1.113751         0.030254         0.106433
 C        -2.595938         0.025095         0.079368
 O        -3.104912        -0.995381         0.899590
 C        -3.150828        -0.121444        -1.347223
 C        -4.689893         0.117138        -1.493394
 C        -4.270037         1.291540        -2.380072
 O        -2.803082         1.090284        -2.165593
 H         1.668661        -0.455720         1.153986
 H         2.085403        -0.510992        -0.725986
 H         1.965385         0.981276         0.202361
 H        -3.083592         0.958355         0.428744
 H        -2.717198        -1.794579         0.541633
 H        -2.816024        -1.043877        -1.876971
 H        -5.110555        -0.653144        -2.154722
 H        -5.130451         0.256154        -0.444710
 H        -4.469483         1.242162        -3.469540
 H        -4.409613         2.409655        -2.196600
