19
Iteration:   133
 C         1.566558        -0.088259         0.467711
 C         0.178411         0.096290         0.131054
 C        -1.014800        -0.068130         0.009398
 C        -2.428113         0.163022        -0.078617
 O        -3.125169        -0.827392         0.709647
 C        -3.168427        -0.131467        -1.453388
 C        -4.674522         0.163164        -1.274527
 C        -4.398271         1.247665        -2.243041
 O        -2.970342         0.877774        -2.439629
 H         2.236581        -0.320495        -0.407615
 H         1.919200         0.883888         0.820098
 H         1.752663        -0.783033         1.146696
 H        -2.687847         1.084173         0.384633
 H        -2.863658        -1.642689         0.320284
 H        -2.873647        -1.098479        -1.881124
 H        -5.359599        -0.662199        -1.608043
 H        -5.104510         0.405766        -0.370543
 H        -5.001092         1.264568        -3.151708
 H        -4.312831         2.228734        -1.763991
