19
Iteration:  2837charge 0 multiplicity 1
 C         1.404560        -0.245479        -0.278364
 C         0.019832         0.075149        -0.055718
 C        -1.126861         0.348598         0.242282
 C        -2.560167         0.661014         0.020649
 O        -3.253670         0.689373         1.263249
 C        -3.329132        -0.362701        -0.885690
 C        -4.619465         0.364141        -1.496157
 C        -3.932610         0.066203        -2.772954
 O        -2.717126        -0.322623        -2.230275
 H         1.978586        -0.585710         0.572928
 H         1.561085        -1.095434        -0.936612
 H         1.831603         0.715897        -0.825397
 H        -2.674747         1.593467        -0.447257
 H        -2.741286         1.237653         1.921956
 H        -3.446973        -1.370096        -0.422975
 H        -5.534022        -0.179255        -1.181756
 H        -4.656006         1.497678        -1.243958
 H        -4.431936        -0.701837        -3.343737
 H        -3.721705         0.890492        -3.366495
