19
Iteration:  2776charge 0 multiplicity 1
 C         1.468199        -0.212819        -0.221005
 C         0.070447         0.016181         0.038466
 C        -1.079348         0.285664         0.230867
 C        -2.439571         0.696645        -0.041470
 O        -3.148235         0.699366         1.233525
 C        -3.289096        -0.271897        -0.879968
 C        -4.698495         0.222729        -1.491227
 C        -4.016942         0.274861        -2.771946
 O        -2.846719        -0.391616        -2.216319
 H         2.129102         0.627842         0.078306
 H         1.543282        -1.214994         0.241382
 H         1.683276        -0.489265        -1.166398
 H        -2.488490         1.689236        -0.641537
 H        -4.101859         0.681989         1.033686
 H        -3.386851        -1.251743        -0.390214
 H        -5.445147        -0.531980        -1.328936
 H        -5.118189         1.081478        -1.052648
 H        -4.485649        -0.250408        -3.680450
 H        -3.676493         1.352715        -3.184716
