19
Iteration:  4273
 C         1.263131        -0.575882         0.321273
 C         0.183100         0.295646         0.024686
 C        -0.951489         0.660959        -0.292600
 C        -2.345829         0.943104        -0.460073
 O        -2.841718         1.441854         0.847611
 C        -3.264006        -0.191157        -0.872334
 C        -4.693317         0.235924        -1.214766
 C        -4.451049        -0.733468        -2.425301
 O        -2.971898        -0.658812        -2.222409
 H         1.305776        -0.879382         1.415194
 H         1.223115        -1.401433        -0.414707
 H         2.336279        -0.157738         0.081642
 H        -2.608391         1.830852        -1.068005
 H        -2.335932         0.959999         1.522679
 H        -3.147702        -1.099704        -0.358014
 H        -5.456386         0.110612        -0.426419
 H        -4.841701         1.266646        -1.576227
 H        -4.758857        -1.743143        -2.241810
 H        -4.668905        -0.253011        -3.391222
