19
Iteration:  3407charge 0 multiplicity 1
 C         1.172165        -0.407385        -0.312330
 C        -0.098145         0.120955        -0.144907
 C        -1.205583         0.595350        -0.021728
 C        -2.565721         0.908380        -0.014202
 O        -3.021713         0.973935         1.372947
 C        -3.418141        -0.109038        -0.779174
 C        -4.660483         0.219926        -1.654446
 C        -3.792321        -0.412946        -2.766966
 O        -2.599183        -0.480966        -1.968746
 H         1.942734         0.375688        -0.314862
 H         1.545542        -1.161494         0.434840
 H         1.221152        -0.807585        -1.434993
 H        -2.748880         1.962185        -0.427299
 H        -2.417245         0.570563         1.976770
 H        -3.622337        -0.946628         0.020445
 H        -5.696809        -0.054388        -1.517884
 H        -4.684732         1.284907        -1.822041
 H        -4.187799        -1.474269        -2.855415
 H        -3.684102         0.151253        -3.651153
