19
Iteration:  2787
 C         1.496585        -0.237501        -0.285481
 C         0.079412         0.035453         0.029288
 C        -1.099535         0.264764         0.244657
 C        -2.493288         0.718330         0.000301
 O        -3.228303         0.676256         1.190893
 C        -3.310301        -0.236385        -0.912433
 C        -4.702897         0.237339        -1.343997
 C        -3.990560         0.274953        -2.854393
 O        -2.792578        -0.452021        -2.222234
 H         2.198590         0.349460         0.359152
 H         1.826401        -1.204686         0.148020
 H         1.711497        -0.149897        -1.276417
 H        -2.433310         1.870195        -0.204189
 H        -4.063551         1.005146         0.934504
 H        -3.209156        -1.097285        -0.243902
 H        -5.499221        -0.479746        -1.251791
 H        -4.934382         1.211629        -1.053715
 H        -4.464535        -0.386870        -3.662524
 H        -3.641467         1.359360        -3.239563
