19
Iteration:  4474
 C         1.405729        -0.314381         0.531031
 C         0.249329         0.283400        -0.063371
 C        -0.884765         0.468948        -0.395887
 C        -2.309069         0.809896        -0.590718
 O        -2.752413         1.463739         0.593429
 C        -3.291123        -0.297625        -0.758973
 C        -4.763467         0.182146        -1.091059
 C        -4.512822        -0.322590        -2.451710
 O        -3.216690        -0.954889        -2.114091
 H         2.284430        -0.267781        -0.024571
 H         1.747435         0.330090         1.400417
 H         1.119933        -1.323351         0.996017
 H        -2.438506         1.468014        -1.453404
 H        -2.168946         1.477792         1.416754
 H        -3.130048        -1.053603        -0.046266
 H        -5.413926        -0.444803        -0.480995
 H        -4.840901         1.283161        -1.028077
 H        -5.148295        -1.046858        -2.912220
 H        -4.322136         0.482011        -3.182086
