19
Iteration:   554
 C         1.512765         0.158068         0.428343
 C         0.103036        -0.074896         0.258406
 C        -1.018046        -0.066375        -0.279695
 C        -2.567601         0.183810        -0.030127
 O        -3.002515        -0.674896         1.135794
 C        -3.260688        -0.275481        -1.295225
 C        -4.798395         0.163401        -1.528197
 C        -4.256382         1.112538        -2.591749
 O        -2.876520         0.717050        -2.387770
 H         1.842893         1.013927        -0.200388
 H         1.852191         0.454293         1.520756
 H         2.228267        -0.739664         0.029025
 H        -2.381235         1.332305        -0.014068
 H        -2.594773        -0.316070         1.872759
 H        -2.943481        -1.332896        -1.503991
 H        -5.497673        -0.568912        -1.913293
 H        -5.333784         0.627942        -0.676747
 H        -4.554547         0.941768        -3.686827
 H        -4.224060         2.237601        -2.414183
