19
Iteration:  2094
 C         1.511463        -0.240364        -0.153816
 C         0.160723         0.150234         0.138247
 C        -1.095708         0.288487         0.219576
 C        -2.540450         0.513109         0.156453
 O        -3.277355         0.186487         1.347523
 C        -3.183963        -0.232419        -1.067368
 C        -4.723952         0.294770        -1.498226
 C        -4.102603         0.305108        -2.899346
 O        -2.740708         0.160039        -2.368118
 H         2.115850         0.731247        -0.499488
 H         2.111853        -0.607737         0.775940
 H         1.476699        -0.929098        -0.999911
 H        -2.784223         1.556935        -0.174166
 H        -3.746080        -0.643819         1.204257
 H        -3.212880        -1.288867        -0.746835
 H        -5.562176        -0.388082        -1.195618
 H        -5.051744         1.325138        -1.256880
 H        -4.153841        -0.626466        -3.381637
 H        -4.296611         1.145066        -3.596123
