19
Iteration:  4092
 C         1.365837        -0.323167        -0.200364
 C         0.000773        -0.175385         0.023519
 C        -1.034760         0.476143         0.040116
 C        -2.338654         0.918554        -0.278285
 O        -3.028334         1.614533         0.764165
 C        -3.316348        -0.239896        -0.647039
 C        -4.665319         0.243735        -1.392269
 C        -3.933876        -0.209514        -2.599050
 O        -3.046189        -1.029855        -1.828256
 H         1.591163         0.438465        -1.063669
 H         1.948793        -0.099655         0.746193
 H         1.693082        -1.330066        -0.585911
 H        -2.476234         1.601073        -1.218453
 H        -3.741219         1.026417         1.171063
 H        -3.477151        -0.935201         0.121284
 H        -5.562570        -0.366773        -1.236032
 H        -4.872285         1.317427        -1.364534
 H        -4.617558        -0.923351        -3.135485
 H        -3.314285         0.394578        -3.223489
