19
Iteration:  1522charge 0 multiplicity 1
 C         1.392187         0.152774        -0.260533
 C        -0.036783        -0.021094        -0.022294
 C        -1.219498        -0.083310         0.272829
 C        -2.576602         0.315649         0.139983
 O        -3.353457        -0.041829         1.349271
 C        -3.227961        -0.358741        -1.138808
 C        -4.629581         0.253045        -1.470654
 C        -3.871196         0.734369        -2.829582
 O        -2.611844         0.265929        -2.246641
 H         1.968210        -0.800043        -0.230690
 H         1.754176         0.527416        -1.312957
 H         1.676836         0.790538         0.521747
 H        -2.657770         1.528721        -0.163669
 H        -2.872213         0.170941         2.163868
 H        -2.936605        -1.442712        -1.128669
 H        -5.400754        -0.523020        -1.619617
 H        -5.073723         1.076104        -0.857912
 H        -4.187238         0.157593        -3.711262
 H        -3.888580         1.759645        -3.049533
