19
Iteration:  2527charge 0 multiplicity 1
 C         1.603797        -0.267028         0.301356
 C         0.187174        -0.038669         0.122436
 C        -1.015478         0.127324         0.071848
 C        -2.369736         0.605023        -0.184906
 O        -3.027440         0.698193         1.141552
 C        -3.219388        -0.269126        -1.119552
 C        -4.852656        -0.006480        -1.358447
 C        -4.366186         0.002586        -2.791065
 O        -3.034132         0.392215        -2.407150
 H         1.892126        -0.240187         1.342126
 H         1.721376        -1.214589        -0.197564
 H         2.259052         0.512248        -0.149867
 H        -2.317610         1.603175        -0.642056
 H        -2.417344         0.163851         1.733833
 H        -3.032089        -1.335845        -0.935563
 H        -5.411430        -0.867464        -0.905175
 H        -5.267225         1.018086        -1.106220
 H        -4.430415        -0.953893        -3.392729
 H        -4.718012         0.806910        -3.469769
