19
Iteration:  3375charge 0 multiplicity 1
 C         1.395504        -0.361455        -0.284624
 C        -0.017766         0.032977        -0.266258
 C        -1.165432         0.386887        -0.008857
 C        -2.554019         0.809979         0.060481
 O        -3.299613         1.090437         1.376610
 C        -3.365764        -0.171674        -0.794139
 C        -4.603678         0.253241        -1.479968
 C        -3.891654        -0.368508        -2.783798
 O        -2.603305        -0.416438        -2.095698
 H         1.887891         0.466343        -0.748380
 H         1.711302        -0.633992         0.739958
 H         1.508691        -1.318918        -0.993893
 H        -2.660431         1.804017        -0.482455
 H        -2.768522         1.722898         1.970534
 H        -3.535423        -1.160035        -0.154831
 H        -5.617016        -0.018349        -1.241842
 H        -4.479288         1.308580        -1.654653
 H        -4.332756        -1.344705        -2.996644
 H        -3.924640         0.178391        -3.699985
