19
Iteration:  4165
 C         1.451444        -0.424620        -0.028714
 C         0.079498         0.140784        -0.118457
 C        -1.102432         0.449945         0.017476
 C        -2.432439         0.862603        -0.312216
 O        -2.951534         1.542961         0.925565
 C        -3.439585        -0.282884        -0.671825
 C        -4.689114         0.294431        -1.463246
 C        -4.109875        -0.421097        -2.613110
 O        -2.950976        -0.885087        -1.945988
 H         2.252087         0.222712         0.185747
 H         1.289033        -1.094691         0.780514
 H         1.692003        -1.030156        -0.959673
 H        -2.490106         1.614079        -1.156317
 H        -2.133409         2.004771         1.319543
 H        -3.398379        -1.120790         0.144943
 H        -5.674826        -0.118014        -1.199083
 H        -4.674128         1.396490        -1.418447
 H        -4.688426        -1.280469        -3.026022
 H        -3.917530         0.216818        -3.524231
