19
Iteration:  4965
 C         1.427598        -0.385442         0.387178
 C         0.089165         0.166743         0.107761
 C        -0.901936         0.553014        -0.421324
 C        -2.272008         0.973371        -0.618236
 O        -2.722676         1.493665         0.625817
 C        -3.241243        -0.152811        -0.798638
 C        -4.691870         0.294663        -1.148361
 C        -4.536781        -0.604541        -2.423905
 O        -3.238924        -1.003279        -1.978311
 H         2.327250         0.258125         0.345924
 H         1.361090        -0.835538         1.393763
 H         1.646220        -1.299692        -0.175567
 H        -2.205732         1.745453        -1.404474
 H        -2.273423         2.301558         0.845132
 H        -2.972306        -0.926528         0.043564
 H        -5.567178        -0.080834        -0.585561
 H        -4.887972         1.305200        -1.426188
 H        -5.129051        -1.500326        -2.462677
 H        -4.480064        -0.189146        -3.427665
