19
Iteration:  1718
 C         1.409773        -0.189242         0.042177
 C        -0.056767        -0.010449        -0.045381
 C        -1.173180         0.376734         0.000791
 C        -2.647746         0.456905         0.158271
 O        -3.080752        -0.174337         1.331532
 C        -3.278464        -0.181699        -1.052343
 C        -4.688264         0.140279        -1.556554
 C        -4.025863         0.510486        -2.873109
 O        -2.648427         0.491304        -2.223574
 H         1.842733         0.745132        -0.251939
 H         1.714477        -0.612500         1.029339
 H         1.722109        -0.840593        -0.674412
 H        -3.029953         1.503861         0.003687
 H        -2.369404        -0.851745         1.595559
 H        -2.958631        -1.221877        -1.253551
 H        -5.422984        -0.680884        -1.661857
 H        -5.197725         0.991828        -1.083136
 H        -4.105187        -0.169790        -3.735655
 H        -4.092675         1.593021        -3.237636
