19
Iteration:   359charge 0 multiplicity 1
 C         1.370383         0.182860        -0.348899
 C        -0.050915         0.122255         0.014768
 C        -1.259753        -0.011782         0.178125
 C        -2.710691         0.002292         0.315427
 O        -3.354862        -0.933376         1.248638
 C        -3.083889        -0.190879        -1.192458
 C        -4.553511         0.102376        -1.649597
 C        -3.865661         1.079192        -2.685845
 O        -2.551158         0.977969        -2.040012
 H         1.886857        -0.458057         0.262331
 H         1.560558        -0.132542        -1.412133
 H         1.887309         1.202907        -0.212531
 H        -3.060131         1.006212         0.466064
 H        -4.051352        -0.381968         1.635891
 H        -2.692650        -1.128224        -1.646502
 H        -5.160140        -0.778329        -2.080414
 H        -5.076282         0.741790        -0.781210
 H        -3.799765         0.427006        -3.598420
 H        -4.236535         2.096968        -2.996212
