19
Iteration:  2245
 C         1.438751        -0.110931        -0.225888
 C        -0.003399        -0.007926        -0.096924
 C        -1.174008         0.286461         0.183097
 C        -2.619474         0.562335         0.183939
 O        -3.189352         0.200114         1.527869
 C        -3.328658        -0.268515        -0.986483
 C        -4.612300         0.421953        -1.506932
 C        -3.905363         0.407225        -2.903030
 O        -2.669984        -0.163910        -2.388078
 H         1.770757        -1.036203         0.310288
 H         1.601082        -0.172031        -1.402778
 H         2.038915         0.868912         0.073160
 H        -2.627752         1.639634         0.003483
 H        -4.125152         0.331640         1.415924
 H        -3.248065        -1.302903        -0.588524
 H        -5.460684        -0.172649        -1.182733
 H        -4.612243         1.427067        -1.126865
 H        -4.412530        -0.330169        -3.650996
 H        -3.806758         1.424522        -3.315191
