19
Iteration:  1032charge 0 multiplicity 1
 C         1.494303         0.212773        -0.125288
 C         0.047095        -0.041525         0.021933
 C        -1.179594        -0.057964         0.143745
 C        -2.627517         0.160369         0.134486
 O        -3.227696        -0.042374         1.478554
 C        -3.318115        -0.366607        -1.175877
 C        -4.722770         0.200074        -1.648045
 C        -3.956440         0.960951        -2.716860
 O        -2.675376         0.257302        -2.381223
 H         1.899457         0.227732         0.976396
 H         1.985572        -0.647832        -0.490624
 H         1.702131         1.128038        -0.657388
 H        -2.563248         1.254859         0.221691
 H        -2.931939        -0.919604         1.623686
 H        -3.146719        -1.525975        -1.202761
 H        -5.438318        -0.552115        -2.110451
 H        -5.018078         0.897543        -0.812699
 H        -4.126096         0.642040        -3.792781
 H        -3.852823         1.987864        -2.382249
