19
Iteration:  3252charge 0 multiplicity 1
 C         1.610272        -0.276463         0.354283
 C         0.197236        -0.009009        -0.085728
 C        -0.972677         0.307214        -0.293704
 C        -2.438436         0.766641        -0.189022
 O        -2.980887         0.993261         1.102222
 C        -3.317725        -0.254906        -0.881539
 C        -4.862815         0.043293        -1.241027
 C        -4.290863        -0.009669        -2.705943
 O        -2.940736        -0.352960        -2.356341
 H         2.145238        -1.192120        -0.022749
 H         2.271468         0.637457         0.020152
 H         1.424670        -0.213997         1.501829
 H        -2.510070         1.750709        -0.711182
 H        -3.897927         1.394678         0.997089
 H        -2.936445        -1.257900        -0.414379
 H        -5.520933        -0.785041        -0.981209
 H        -5.229249         0.987865        -0.878908
 H        -4.828562        -0.613107        -3.373837
 H        -4.354390         1.001529        -3.036876
