19
Iteration:  4676
 C         1.421144        -0.484872        -0.031428
 C         0.094732        -0.024345        -0.261120
 C        -1.033540         0.484345        -0.083935
 C        -2.445017         1.005892        -0.202436
 O        -3.041285         1.745142         0.821565
 C        -3.376214        -0.179789        -0.700939
 C        -4.669763         0.361495        -1.473213
 C        -4.233205        -0.810662        -2.480809
 O        -2.867563        -0.846161        -1.883230
 H         1.525129        -0.967910         1.071976
 H         1.507165        -1.442653        -0.539113
 H         2.190183         0.254065         0.014987
 H        -2.277105         1.619910        -1.115571
 H        -2.286907         1.991018         1.403088
 H        -3.567429        -0.778342         0.191139
 H        -5.537424         0.378947        -0.778907
 H        -4.388531         1.339841        -1.929244
 H        -4.689656        -1.794399        -2.515636
 H        -4.126149        -0.434134        -3.479324
