19
Iteration:   685
 C         1.463953        -0.394065         0.270568
 C         0.110379         0.146878         0.183947
 C        -1.097581         0.351298         0.102804
 C        -2.592285         0.387601         0.066229
 O        -3.011047        -0.373812         1.226844
 C        -3.036753        -0.145817        -1.361504
 C        -4.582252        -0.248088        -1.624874
 C        -4.425313         0.890269        -2.659548
 O        -2.952222         0.851753        -2.429381
 H         1.664055        -0.585892         1.302727
 H         1.389330        -1.366742        -0.209394
 H         2.304837         0.323073        -0.121191
 H        -2.880978         1.441658         0.095493
 H        -2.224850        -0.951220         1.410331
 H        -2.200331        -0.938647        -1.576252
 H        -4.991723        -1.170631        -2.027737
 H        -5.119876        -0.084120        -0.666792
 H        -4.560325         0.809371        -3.826819
 H        -5.144264         1.794038        -2.341154
