19
Iteration:  3989charge 0 multiplicity 1
 C         1.330840        -0.509956         0.128435
 C        -0.026888         0.066478        -0.079894
 C        -1.034852         0.745868        -0.365370
 C        -2.449352         1.098016        -0.322031
 O        -2.879794         1.256311         1.085019
 C        -3.240850        -0.090278        -0.798552
 C        -4.602043         0.234409        -1.360548
 C        -4.197043        -0.498873        -2.598008
 O        -2.965206        -0.952995        -1.997536
 H         1.347810        -1.422651        -0.423040
 H         2.089784         0.186474        -0.210265
 H         1.597887        -0.803219         1.210758
 H        -2.652134         2.076127        -0.944762
 H        -2.965950         2.219230         1.245828
 H        -3.319344        -0.808021        -0.000917
 H        -5.478692        -0.229291        -0.849438
 H        -4.922213         1.276483        -1.562602
 H        -4.687793        -1.344521        -3.124488
 H        -3.931823         0.205926        -3.453715
