19
Iteration:   772
 C         1.468349        -0.243235        -0.035155
 C         0.076046         0.016637         0.210622
 C        -1.121872         0.147517         0.362058
 C        -2.541206         0.435516         0.184297
 O        -3.193533        -0.429409         1.110327
 C        -2.991671        -0.038954        -1.230437
 C        -4.592654        -0.068096        -1.470864
 C        -4.237911         0.633988        -2.854101
 O        -2.898728         0.903565        -2.396563
 H         1.754227        -1.269266        -0.129870
 H         1.744656         0.209842        -0.965494
 H         2.383280         0.126604         0.639187
 H        -2.899723         1.511403         0.308429
 H        -3.175610        -0.010920         2.054586
 H        -2.595733        -1.066700        -1.550537
 H        -5.098655        -1.055314        -1.520350
 H        -5.129127         0.581540        -0.746025
 H        -4.271374         0.163526        -3.862257
 H        -5.037321         1.387890        -3.109600
