19
Iteration:  1776charge 0 multiplicity 1
 C         1.647211        -0.164315         0.098053
 C         0.190063         0.059277         0.251782
 C        -1.014355         0.048692         0.325895
 C        -2.433450         0.450732         0.019304
 O        -3.352688        -0.068482         1.031222
 C        -3.154626        -0.225848        -1.247144
 C        -4.680359         0.072397        -1.307852
 C        -4.303720         0.625363        -2.790492
 O        -2.916052         0.488846        -2.506562
 H         2.206721         0.491224         0.786512
 H         2.105202        -1.122095         0.432216
 H         2.016409        -0.006315        -0.862519
 H        -2.547572         1.530902        -0.226686
 H        -3.107037         0.394269         1.793340
 H        -2.838475        -1.308688        -1.351860
 H        -5.323023        -0.812181        -1.342441
 H        -5.033829         0.862218        -0.618183
 H        -4.766066        -0.071193        -3.569004
 H        -4.520506         1.677790        -3.103739
