19
Iteration:  4015
 C         1.337137        -0.477152         0.035864
 C         0.045149         0.125430        -0.075245
 C        -1.081900         0.510999        -0.289561
 C        -2.448047         0.990547        -0.253610
 O        -2.828299         1.431235         1.053716
 C        -3.422183        -0.149589        -0.686086
 C        -4.806824         0.146574        -1.440460
 C        -4.089633        -0.429319        -2.705225
 O        -2.870603        -0.840826        -1.888054
 H         1.482091        -1.095530        -0.934191
 H         2.123185         0.327102         0.172370
 H         1.551995        -1.171586         0.924028
 H        -2.558101         1.804865        -1.115886
 H        -2.254197         2.199845         1.314805
 H        -3.616377        -0.954981         0.021350
 H        -5.744952        -0.389783        -1.258728
 H        -5.115766         1.191588        -1.608272
 H        -4.434389        -1.404353        -3.132199
 H        -3.742325         0.202789        -3.518159
