19
Iteration:  4784charge 0 multiplicity 1
 C         1.198682        -0.723713         0.095497
 C         0.076085         0.167314        -0.382435
 C        -0.995925         0.694568        -0.270345
 C        -2.433095         1.081850        -0.364099
 O        -2.976336         1.658840         0.785212
 C        -3.322410        -0.079124        -0.637274
 C        -4.695665         0.171088        -1.346083
 C        -4.088875        -0.713547        -2.486197
 O        -2.870263        -0.884131        -1.786569
 H         0.922960        -1.723092        -0.158007
 H         2.151673        -0.322735        -0.273138
 H         1.388114        -0.633976         1.145671
 H        -2.364976         1.876280        -1.143564
 H        -2.254636         1.810850         1.479300
 H        -3.363170        -0.713938         0.266039
 H        -5.521030        -0.183905        -0.690854
 H        -4.901066         1.276981        -1.435781
 H        -4.576643        -1.724403        -2.427911
 H        -3.889572        -0.458923        -3.524161
