19
Iteration:  1381charge 0 multiplicity 1
 C         1.537878        -0.145871         0.387719
 C         0.040724        -0.044712         0.113792
 C        -1.123865         0.236927        -0.075459
 C        -2.559606         0.450541        -0.075726
 O        -2.891490        -0.145783         1.165680
 C        -3.268893        -0.261192        -1.253411
 C        -4.778411        -0.012920        -1.503397
 C        -4.281734         0.882370        -2.590259
 O        -2.866680         0.368403        -2.469353
 H         1.880876         0.618465         1.192104
 H         1.705636        -1.072294         0.960429
 H         2.129485        -0.045486        -0.478933
 H        -2.727381         1.473373         0.063761
 H        -2.196273         0.100100         1.842722
 H        -2.911533        -1.320713        -1.375184
 H        -5.226336        -0.944382        -1.874513
 H        -5.474964         0.576825        -0.842678
 H        -4.648211         0.510261        -3.625105
 H        -4.285359         2.032563        -2.523485
