19
Iteration:  4886charge 0 multiplicity 1
 C         1.542594        -0.509451         0.038945
 C         0.145221        -0.083938         0.030410
 C        -1.037151         0.273914         0.069801
 C        -2.324222         1.010898        -0.380216
 O        -2.890851         1.978408         0.447435
 C        -3.392168        -0.158903        -0.640789
 C        -4.777539         0.060313        -1.156059
 C        -4.328025        -0.651371        -2.486507
 O        -2.978925        -0.751674        -1.961039
 H         1.986672        -0.173912        -0.924632
 H         2.028365         0.131933         0.707422
 H         1.547157        -1.528816         0.041674
 H        -1.873249         1.575470        -1.200351
 H        -3.794668         1.781519         0.527840
 H        -3.246416        -1.024729         0.057757
 H        -5.627239        -0.417902        -0.681177
 H        -5.031564         1.142004        -1.331113
 H        -4.741266        -1.600713        -2.781079
 H        -4.359654        -0.028289        -3.373189
