19
Iteration:   566charge 0 multiplicity 1
 C         1.546357         0.142541         0.462005
 C         0.132728        -0.054428         0.229952
 C        -1.007846        -0.089626        -0.185581
 C        -2.425027         0.121814        -0.075504
 O        -3.020935        -0.572218         1.021109
 C        -3.312451        -0.205719        -1.283842
 C        -4.783959         0.095517        -1.523534
 C        -4.251517         1.151695        -2.603177
 O        -2.944530         0.690283        -2.338335
 H         1.779969         1.090799        -0.001793
 H         1.917223         0.074285         1.594896
 H         2.096043        -0.761894        -0.110216
 H        -2.785720         1.194493         0.216861
 H        -2.551061        -0.254154         1.864429
 H        -3.140733        -1.277631        -1.549917
 H        -5.233869        -0.821169        -1.911403
 H        -5.384319         0.581278        -0.710072
 H        -4.591761         0.876750        -3.644275
 H        -4.527792         2.210529        -2.397569
