19
Iteration:  3463
 C         1.154228        -0.469078        -0.304569
 C        -0.041542         0.348775        -0.263259
 C        -1.132840         0.832215         0.009049
 C        -2.606413         0.932323         0.045611
 O        -3.015324         0.914310         1.363945
 C        -3.368405        -0.172773        -0.821528
 C        -4.561022         0.304122        -1.668360
 C        -3.836227        -0.424829        -2.765144
 O        -2.703436        -0.674249        -1.888457
 H         1.765849        -0.447057         0.574518
 H         0.916508        -1.543014        -0.376422
 H         1.808616        -0.386168        -1.279888
 H        -2.978662         1.932064        -0.366723
 H        -2.856529         0.011231         1.770550
 H        -3.666759        -0.862645        -0.068550
 H        -5.515447        -0.125922        -1.350097
 H        -4.586209         1.384521        -1.892689
 H        -4.292317        -1.329850        -3.224564
 H        -3.471420         0.091943        -3.622161
