19
Iteration:  1417charge 0 multiplicity 1
 C         1.425535        -0.204986         0.307952
 C         0.066151         0.202623        -0.020247
 C        -1.120082         0.464454        -0.225407
 C        -2.528394         0.397945         0.075137
 O        -3.083888        -0.218254         1.265232
 C        -3.210818        -0.269183        -1.229667
 C        -4.742099         0.102480        -1.449544
 C        -4.091308         0.848288        -2.589988
 O        -2.811591         0.179021        -2.471096
 H         1.615467         0.069927         1.392663
 H         1.466757        -1.218537         0.159930
 H         2.301955         0.242382        -0.301659
 H        -2.982822         1.408545        -0.007800
 H        -2.489232        -0.980815         1.590076
 H        -3.124327        -1.360550        -1.023895
 H        -5.396669        -0.727199        -1.720615
 H        -5.227005         0.755814        -0.735056
 H        -4.557186         0.729180        -3.595830
 H        -3.956594         1.965352        -2.362343
