19
Iteration:    26
 C         1.487774        -0.078513         0.320318
 C         0.097764         0.096628        -0.204933
 C        -1.120098         0.049279         0.013135
 C        -2.559062         0.026216         0.012128
 O        -3.038662        -0.987830         0.959370
 C        -3.146059        -0.128870        -1.388123
 C        -4.668160         0.094677        -1.490145
 C        -4.246356         1.328870        -2.303625
 O        -2.854269         1.019995        -2.168275
 H         1.552061        -0.903390         0.971551
 H         2.129885        -0.237609        -0.563174
 H         1.977538         0.950425         0.848175
 H        -2.911020         1.040477         0.430217
 H        -3.554667        -1.657071         0.566305
 H        -2.722877        -1.042934        -1.847737
 H        -5.222586        -0.653503        -2.094379
 H        -5.080426         0.427066        -0.568152
 H        -4.541729         1.373567        -3.430490
 H        -4.574163         2.280859        -1.947198
