19
Iteration:  3394
 C         1.302566        -0.392118        -0.333993
 C        -0.088096         0.068458        -0.226089
 C        -1.215443         0.524849        -0.001151
 C        -2.651041         0.886109         0.036303
 O        -3.128432         1.018990         1.337698
 C        -3.369181        -0.214711        -0.762762
 C        -4.573776         0.295734        -1.633524
 C        -3.852238        -0.412309        -2.738297
 O        -2.636367        -0.396425        -1.950154
 H         2.012342         0.435727        -0.353763
 H         1.567947        -1.005459         0.603593
 H         1.438085        -1.102146        -1.150719
 H        -2.778047         1.823192        -0.563692
 H        -2.259856         1.010210         1.848901
 H        -3.461423        -1.187673        -0.261856
 H        -5.526066        -0.156267        -1.367411
 H        -4.625384         1.372983        -1.671332
 H        -4.163824        -1.479747        -3.106536
 H        -3.694107         0.029670        -3.712370
