19
Iteration:  4817
 C         1.295550        -0.705579         0.057308
 C         0.062567         0.107280        -0.126085
 C        -0.982390         0.656613        -0.263729
 C        -2.388534         1.115222        -0.384566
 O        -3.044696         1.695944         0.753456
 C        -3.253194        -0.107137        -0.688428
 C        -4.713804         0.159925        -1.230082
 C        -4.170430        -0.649727        -2.444605
 O        -2.858085        -0.947461        -1.869825
 H         1.453344        -1.388331        -0.734057
 H         2.199443        -0.191997        -0.269687
 H         1.289513        -1.418267         0.834175
 H        -2.474742         1.834241        -1.244178
 H        -2.959597         2.631538         0.566677
 H        -3.298293        -0.678821         0.227490
 H        -5.540729        -0.270919        -0.608470
 H        -4.806180         1.286319        -1.346290
 H        -4.659404        -1.655928        -2.598022
 H        -4.042212        -0.268158        -3.467335
