19
Iteration:  3997
 C         1.342193        -0.494499         0.088904
 C        -0.034563         0.074705        -0.028585
 C        -1.029531         0.666187        -0.403028
 C        -2.465264         1.103423        -0.315345
 O        -2.872687         1.318798         1.124789
 C        -3.320647        -0.134404        -0.771596
 C        -4.616268         0.216082        -1.424041
 C        -4.136827        -0.521108        -2.673028
 O        -2.985533        -0.905806        -1.968649
 H         1.452485        -1.329609        -0.586870
 H         2.204888         0.163870        -0.085344
 H         1.520470        -0.862871         1.038293
 H        -2.520344         2.047469        -0.737015
 H        -2.748748         2.314329         1.184201
 H        -3.349794        -0.827897         0.151572
 H        -5.268357        -0.457319        -0.869534
 H        -4.912603         1.256679        -1.303811
 H        -4.777008        -1.328215        -2.994427
 H        -3.828410         0.251157        -3.441494
