19
Iteration:   750charge 0 multiplicity 1
 C         1.458601        -0.308749         0.059563
 C         0.034742        -0.052983         0.033718
 C        -1.103611         0.357830         0.172019
 C        -2.540056         0.424181         0.132618
 O        -3.200274        -0.411589         1.113713
 C        -3.039239        -0.007948        -1.231395
 C        -4.568274        -0.251048        -1.515625
 C        -4.226033         0.685141        -2.737406
 O        -2.879011         0.949725        -2.264210
 H         1.680593        -1.270015         0.474406
 H         1.984688        -0.280951        -0.862170
 H         2.088490         0.403230         0.753834
 H        -2.891395         1.416907         0.494849
 H        -3.030945         0.081751         1.875550
 H        -2.677934        -1.081020        -1.413186
 H        -4.913097        -1.261765        -1.769887
 H        -5.261637         0.206648        -0.782758
 H        -4.263350         0.145515        -3.729929
 H        -4.734983         1.643023        -3.063360
