19
Iteration:  4580charge 0 multiplicity 1
 C         1.555215        -0.363096         0.200008
 C         0.133247         0.009942        -0.099615
 C        -1.048586         0.376420        -0.081604
 C        -2.383498         0.905423        -0.356802
 O        -2.900164         1.699198         0.696592
 C        -3.365540        -0.257670        -0.678944
 C        -4.689070         0.248787        -1.316948
 C        -4.384079        -0.544122        -2.527911
 O        -3.041016        -0.866088        -2.035281
 H         2.142087         0.491908         0.613915
 H         1.479378        -1.164130         0.947896
 H         2.182009        -0.575248        -0.720668
 H        -2.384452         1.445706        -1.350655
 H        -2.131080         2.052355         1.240150
 H        -3.408264        -1.121872         0.069366
 H        -5.608146         0.078947        -0.762673
 H        -4.765775         1.338879        -1.542148
 H        -5.028255        -1.466836        -2.621225
 H        -4.324615        -0.149229        -3.586809
