19
Iteration:  2138
 C         1.336158        -0.232726        -0.150754
 C        -0.017783         0.146498        -0.077070
 C        -1.185197         0.458351         0.230078
 C        -2.587243         0.579992         0.150905
 O        -3.202706         0.009053         1.309320
 C        -3.268065        -0.140763        -1.018532
 C        -4.583395         0.447595        -1.489005
 C        -3.982919         0.227427        -2.886512
 O        -2.657441        -0.012625        -2.293782
 H         2.089079         0.610237         0.249325
 H         1.625255        -1.262035         0.256413
 H         1.560551        -0.240445        -1.210035
 H        -2.837421         1.705630         0.254278
 H        -2.451994        -0.422398         1.786449
 H        -3.216721        -1.256623        -0.731810
 H        -5.555275        -0.099910        -1.357909
 H        -4.744597         1.458625        -1.093147
 H        -4.519307        -0.622717        -3.410278
 H        -3.818261         1.105999        -3.561839
