19
Iteration:  4011charge 0 multiplicity 1
 C         1.330672        -0.483703         0.033188
 C         0.029510         0.120213        -0.043345
 C        -1.054138         0.531395        -0.338039
 C        -2.418527         1.025360        -0.252717
 O        -2.840249         1.415142         1.085543
 C        -3.403542        -0.149346        -0.718170
 C        -4.776690         0.149087        -1.421579
 C        -4.094381        -0.427429        -2.738134
 O        -2.889114        -0.867041        -1.892951
 H         1.483208        -1.117224        -0.809198
 H         2.026370         0.330981         0.082843
 H         1.476656        -1.115249         0.975516
 H        -2.645336         1.803816        -1.057882
 H        -2.400233         2.251691         1.362055
 H        -3.496124        -0.848918         0.128569
 H        -5.714312        -0.399542        -1.195299
 H        -5.106231         1.206545        -1.478057
 H        -4.579689        -1.380178        -3.092237
 H        -3.813444         0.076619        -3.710395
