19
Iteration:  2658charge 0 multiplicity 1
 C         1.451213        -0.401641         0.246220
 C         0.117131         0.181198         0.068439
 C        -1.041196         0.483949        -0.030313
 C        -2.494213         0.702925        -0.133246
 O        -2.920463         0.531407         1.214166
 C        -3.240669        -0.372432        -1.028942
 C        -4.713602         0.074161        -1.271458
 C        -4.288075         0.331323        -2.798641
 O        -2.945267        -0.221773        -2.516605
 H         1.590371        -0.977272        -0.694889
 H         2.225322         0.434872         0.267867
 H         1.680101        -0.887821         1.234424
 H        -2.567524         1.720689        -0.705429
 H        -3.217464         1.327061         1.772177
 H        -2.816492        -1.304476        -0.633272
 H        -5.503883        -0.709876        -1.166904
 H        -5.076404         1.020040        -0.747064
 H        -4.767886        -0.175295        -3.590464
 H        -4.267972         1.358629        -2.998442
