19
Iteration:  4279
 C         1.302729        -0.605244         0.311700
 C         0.159242         0.301256         0.043631
 C        -0.930043         0.686651        -0.250367
 C        -2.331672         1.015235        -0.451222
 O        -2.852275         1.414860         0.780752
 C        -3.252988        -0.162061        -0.887823
 C        -4.738830         0.218047        -1.175350
 C        -4.489191        -0.726448        -2.420108
 O        -2.934719        -0.675560        -2.228428
 H         1.447913        -1.002392         1.334787
 H         1.330857        -1.426810        -0.417561
 H         2.174857        -0.029211         0.243409
 H        -2.410133         1.818507        -1.212574
 H        -2.519583         0.706016         1.445460
 H        -3.210626        -1.119121        -0.189240
 H        -5.536830         0.086478        -0.439750
 H        -4.627572         1.304809        -1.402716
 H        -4.873467        -1.802339        -2.374481
 H        -4.896941        -0.307880        -3.354817
