19
Iteration:  4996charge 0 multiplicity 1
 C         1.436803        -0.358646         0.614537
 C         0.248109         0.169536        -0.174066
 C        -0.817022         0.510984        -0.609834
 C        -2.286944         0.944915        -0.551229
 O        -2.647719         1.447170         0.699350
 C        -3.373711        -0.144594        -0.788929
 C        -4.790043         0.317703        -1.163807
 C        -4.545900        -0.620548        -2.411277
 O        -3.218066        -0.967204        -2.004156
 H         2.117002         0.326206         1.193237
 H         0.865886        -0.982144         1.388349
 H         2.083340        -1.082775         0.164055
 H        -2.386596         1.724121        -1.374177
 H        -2.717165         2.466410         0.632140
 H        -3.119500        -0.752651         0.118940
 H        -5.633534        -0.131825        -0.546958
 H        -5.043558         1.360486        -1.386372
 H        -5.218607        -1.515584        -2.368802
 H        -4.629894        -0.162945        -3.416345
