19
Iteration:   187
 C         1.545410        -0.046999         0.328767
 C         0.134873        -0.074905         0.099400
 C        -1.076274        -0.028256         0.023211
 C        -2.556322         0.117654         0.001770
 O        -2.886740        -0.890199         0.982381
 C        -3.270903        -0.127549        -1.352383
 C        -4.712781         0.129328        -1.513309
 C        -4.340779         1.283605        -2.536345
 O        -2.908196         1.005474        -2.248972
 H         2.074178         0.744176        -0.444227
 H         1.895228         0.254184         1.371159
 H         1.925618        -1.025147         0.171183
 H        -2.817553         1.098507         0.468008
 H        -3.773524        -1.149165         0.989197
 H        -2.818958        -1.005277        -1.854446
 H        -5.195334        -0.829908        -1.921603
 H        -5.220139         0.364477        -0.638004
 H        -4.561016         1.052254        -3.554213
 H        -4.551354         2.368097        -2.406778
