19
Iteration:  2830charge 0 multiplicity 1
 C         1.411707        -0.270328        -0.303446
 C         0.022362         0.067403        -0.034675
 C        -1.135044         0.364170         0.216043
 C        -2.540090         0.655549         0.088630
 O        -3.274549         0.693541         1.255487
 C        -3.314321        -0.364551        -0.902875
 C        -4.594227         0.367553        -1.419491
 C        -3.963029         0.108099        -2.829790
 O        -2.710756        -0.368470        -2.242637
 H         2.029751        -0.226539         0.679289
 H         1.652480        -1.138167        -0.939116
 H         1.800825         0.639267        -0.804695
 H        -2.813212         1.592807        -0.596666
 H        -3.076110         1.410595         1.840234
 H        -3.458584        -1.388860        -0.502645
 H        -5.508304        -0.076618        -1.087699
 H        -4.487011         1.324896        -1.049997
 H        -4.362045        -0.740213        -3.486150
 H        -3.754681         1.017410        -3.487222
