19
Iteration:  2508charge 0 multiplicity 1
 C         1.636943        -0.367086         0.297684
 C         0.193437         0.020730         0.072295
 C        -1.022459         0.221663         0.032419
 C        -2.404963         0.617989        -0.044535
 O        -3.092357         0.596677         1.203838
 C        -3.209386        -0.149231        -1.157111
 C        -4.727083        -0.030304        -1.310151
 C        -4.413866         0.041287        -2.826806
 O        -3.027322         0.292752        -2.517151
 H         1.885862         0.037052         1.254211
 H         1.855167        -1.388357         0.299612
 H         2.362681         0.264113        -0.286360
 H        -2.405748         1.573614        -0.562552
 H        -2.539968         0.982450         1.973994
 H        -2.923854        -1.211720        -1.114007
 H        -5.466022        -0.796776        -1.050307
 H        -5.034251         0.937184        -0.849256
 H        -4.482472        -0.920253        -3.432339
 H        -5.064632         0.805087        -3.462242
