19
Iteration:  1521
 C         1.393155         0.150835        -0.251143
 C        -0.032797        -0.022194        -0.026709
 C        -1.212832        -0.079229         0.282334
 C        -2.581438         0.318647         0.138735
 O        -3.345788        -0.042988         1.343011
 C        -3.238996        -0.351294        -1.144314
 C        -4.631475         0.253391        -1.473880
 C        -3.875714         0.728177        -2.827090
 O        -2.615800         0.260309        -2.246110
 H         1.956703        -0.783344        -0.221358
 H         1.740553         0.499142        -1.345966
 H         1.701423         0.803428         0.528290
 H        -2.662574         1.525270        -0.149272
 H        -2.873723         0.133341         2.132176
 H        -2.901701        -1.406952        -1.103556
 H        -5.390862        -0.528801        -1.630540
 H        -5.065937         1.076166        -0.853795
 H        -4.172451         0.179357        -3.713880
 H        -3.880995         1.787957        -3.023176
