19
Iteration:  2002
 C         1.612129        -0.224101         0.220016
 C         0.140123        -0.037225         0.131465
 C        -1.049556         0.180928         0.129097
 C        -2.505714         0.513705        -0.047511
 O        -3.179780         0.276432         1.208266
 C        -3.191261        -0.284000        -1.191501
 C        -4.731539        -0.088349        -1.369126
 C        -4.322353         0.528925        -2.753313
 O        -2.851825         0.369309        -2.494145
 H         1.895191        -0.575361        -0.760458
 H         2.284623         0.654570         0.359911
 H         1.790885        -1.212496         0.744239
 H        -2.612023         1.641487        -0.356886
 H        -2.818911         0.985798         1.856330
 H        -2.747514        -1.316539        -1.283651
 H        -5.414814        -0.905599        -1.486567
 H        -5.213726         0.689313        -0.773360
 H        -4.461555        -0.135063        -3.630133
 H        -4.712341         1.526113        -2.993479
