19
Iteration:  2451
 C         1.438437        -0.457554         0.258634
 C         0.082884         0.087345         0.139448
 C        -1.004119         0.655236         0.028963
 C        -2.412327         0.769311        -0.201419
 O        -3.015434         0.309905         1.087104
 C        -3.147616        -0.217087        -1.104598
 C        -4.642526        -0.030719        -1.157795
 C        -4.384561         0.237458        -2.706920
 O        -2.898507         0.080389        -2.545470
 H         2.209674         0.249703         0.448438
 H         1.493167        -1.188884         0.970519
 H         1.520461        -1.027932        -0.682861
 H        -2.623504         1.733216        -0.633108
 H        -3.772555         0.796136         1.339066
 H        -2.865208        -1.210129        -0.750204
 H        -5.355922        -0.884604        -0.946939
 H        -4.871528         0.861331        -0.515111
 H        -4.662494        -0.657829        -3.399481
 H        -4.691943         1.324878        -3.051128
