19
Iteration:  4074charge 0 multiplicity 1
 C         1.443666        -0.332838        -0.193172
 C        -0.045953        -0.195136        -0.056930
 C        -1.139147         0.353675        -0.011272
 C        -2.516986         0.930819        -0.268651
 O        -2.930663         1.767704         0.876898
 C        -3.441057        -0.261986        -0.672035
 C        -4.660785         0.196005        -1.349938
 C        -3.944270        -0.289261        -2.694110
 O        -2.916002        -0.982551        -1.843334
 H         1.975802         0.182384        -1.035262
 H         1.968821         0.221211         0.637066
 H         1.753075        -1.339912        -0.146814
 H        -2.305055         1.685377        -1.032570
 H        -3.431434         1.108337         1.450855
 H        -3.550183        -1.020270         0.231399
 H        -5.575401        -0.346540        -1.112860
 H        -4.873298         1.276689        -1.247604
 H        -4.333396        -0.936568        -3.463001
 H        -3.519915         0.556026        -3.323713
