19
Iteration:  1534
 C         1.367812         0.153270        -0.306934
 C        -0.020674        -0.017520        -0.024426
 C        -1.216222        -0.108592         0.155030
 C        -2.632400         0.215653         0.195753
 O        -3.431950        -0.006769         1.393003
 C        -3.183717        -0.369928        -1.065505
 C        -4.565031         0.242682        -1.502473
 C        -3.878410         0.703369        -2.778004
 O        -2.548437         0.339843        -2.287582
 H         1.949512        -0.829702        -0.330914
 H         1.487823         0.898419        -1.137322
 H         1.852317         0.638838         0.505099
 H        -2.637650         1.459499         0.002360
 H        -2.929709         0.592362         2.066282
 H        -3.366482        -1.446532        -1.170123
 H        -5.430540        -0.430379        -1.636451
 H        -4.806566         1.032559        -0.756469
 H        -4.120445         0.005551        -3.613059
 H        -3.862555         1.665289        -3.153845
