19
Iteration:  1767
 C         1.606968        -0.166122         0.083833
 C         0.203310         0.081537         0.199414
 C        -1.025449         0.042999         0.331488
 C        -2.495895         0.438204         0.016309
 O        -3.294880        -0.077035         1.089347
 C        -3.187155        -0.202950        -1.234582
 C        -4.680849         0.134478        -1.381127
 C        -4.292886         0.585064        -2.807395
 O        -2.877479         0.482425        -2.463106
 H         2.092174         0.693651         0.630511
 H         1.615349        -1.134329         0.554483
 H         2.068413        -0.145517        -1.004615
 H        -2.629507         1.448229        -0.080783
 H        -3.006394         0.239006         1.905892
 H        -2.847269        -1.268397        -1.360358
 H        -5.273652        -0.777526        -1.400522
 H        -4.967927         0.726544        -0.489988
 H        -4.342156        -0.047960        -3.730974
 H        -4.584770         1.580911        -3.011041
