19
Iteration:  4248charge 0 multiplicity 1
 C         1.274473        -0.549439         0.354468
 C         0.126900         0.216872        -0.148894
 C        -1.007110         0.534530        -0.410719
 C        -2.382000         1.045483        -0.305800
 O        -2.780180         1.458764         1.015036
 C        -3.323791        -0.167193        -0.786238
 C        -4.718316         0.166643        -1.330248
 C        -4.438805        -0.740224        -2.543842
 O        -2.902123        -0.645788        -2.203602
 H         1.438901        -0.332743         1.489977
 H         1.304592        -1.630502         0.051600
 H         2.195346        -0.197640        -0.100171
 H        -2.579265         1.913881        -0.919899
 H        -2.026276         1.862332         1.394101
 H        -3.142445        -1.101512        -0.238286
 H        -5.642816         0.035569        -0.743031
 H        -4.713620         1.273516        -1.519154
 H        -4.715182        -1.777578        -2.285972
 H        -4.663592        -0.356128        -3.537461
