19
Iteration:  1144charge 0 multiplicity 1
 C         1.315279        -0.381507        -0.069350
 C         0.075566         0.188073         0.328120
 C        -1.085832         0.413587         0.286328
 C        -2.544791         0.565404         0.118919
 O        -3.139584        -0.286421         1.173661
 C        -3.068805        -0.105108        -1.247358
 C        -4.652603        -0.020654        -1.472297
 C        -4.200496         0.501303        -2.830162
 O        -2.805507         0.684923        -2.395642
 H         1.311923        -1.470657        -0.202125
 H         1.688026         0.065304        -0.940376
 H         2.032206        -0.360362         0.803873
 H        -2.778695         1.588393         0.159254
 H        -2.379718        -0.969722         1.290200
 H        -2.635934        -1.196557        -1.243822
 H        -5.021920        -0.991783        -1.676305
 H        -5.234864         0.554960        -0.750926
 H        -4.388450        -0.223837        -3.710383
 H        -4.623389         1.474368        -3.008996
