19
Iteration:  4652
 C         1.387004        -0.470819        -0.029443
 C         0.072890         0.082046        -0.031943
 C        -1.017802         0.536060        -0.013506
 C        -2.390912         0.962910        -0.333308
 O        -3.028922         1.569440         0.745179
 C        -3.324394        -0.188233        -0.682437
 C        -4.551517         0.417236        -1.449170
 C        -4.286160        -0.675726        -2.415286
 O        -2.952455        -0.954259        -1.950911
 H         2.007686        -0.613757         0.909367
 H         1.241436        -1.472676        -0.475525
 H         2.014410         0.214256        -0.619345
 H        -2.257221         1.568990        -1.262180
 H        -2.353201         2.260532         1.062900
 H        -3.533769        -0.767509         0.264031
 H        -5.583869         0.292305        -1.031284
 H        -4.368197         1.436223        -1.804453
 H        -4.908135        -1.560078        -2.310073
 H        -4.319258        -0.397882        -3.445277
