19
Iteration:  2883charge 0 multiplicity 1
 C         1.445330        -0.263447        -0.217834
 C         0.006217         0.016395        -0.042950
 C        -1.160673         0.378179        -0.023730
 C        -2.549785         0.796923         0.093052
 O        -3.086110         0.736997         1.525773
 C        -3.370913        -0.073665        -0.880215
 C        -4.743127         0.209726        -1.629606
 C        -3.994700        -0.066313        -2.921555
 O        -2.669315        -0.289983        -2.162489
 H         1.567046        -1.328789         0.119541
 H         1.671493        -0.438470        -1.269562
 H         2.224929         0.492563         0.202526
 H        -2.705736         1.725190        -0.288424
 H        -3.297400        -0.176260         1.743696
 H        -3.408425        -1.071625        -0.366259
 H        -5.603691        -0.440976        -1.477508
 H        -4.946598         1.264262        -1.458141
 H        -4.109211        -1.043531        -3.364292
 H        -3.979549         0.663573        -3.628694
