19
Iteration:   160
 C         1.590245        -0.077735         0.415001
 C         0.196408         0.004652         0.069571
 C        -1.001570         0.122637        -0.086466
 C        -2.472927         0.086976        -0.024789
 O        -3.162139        -0.909821         0.921426
 C        -3.155868        -0.189338        -1.463059
 C        -4.611278         0.149967        -1.361980
 C        -4.412619         1.259141        -2.353254
 O        -2.930069         0.959195        -2.360697
 H         2.219143         0.252198        -0.381403
 H         1.793216         0.672742         1.197002
 H         1.921727        -1.129007         0.872200
 H        -2.812722         1.073264         0.410698
 H        -3.775575        -1.375370         0.397373
 H        -2.805272        -1.106304        -1.967477
 H        -5.351034        -0.595079        -1.582840
 H        -4.985813         0.460899        -0.304527
 H        -4.906944         1.109864        -3.365200
 H        -4.496517         2.322665        -2.069418
