19
Iteration:  1024charge 0 multiplicity 1
 C         1.487496         0.202034        -0.096534
 C         0.067153         0.018472         0.050182
 C        -1.140203        -0.054365         0.177943
 C        -2.668965         0.175440         0.116006
 O        -3.175330        -0.085348         1.401816
 C        -3.385229        -0.403937        -1.172018
 C        -4.685378         0.249162        -1.622419
 C        -3.943512         0.956863        -2.704026
 O        -2.681405         0.210460        -2.361980
 H         1.984861         0.489055         0.784499
 H         1.838774        -0.745388        -0.459093
 H         1.863821         1.044041        -0.817601
 H        -2.887759         1.294283         0.165141
 H        -2.925774        -0.906882         1.756323
 H        -3.456508        -1.508118        -1.154115
 H        -5.403281        -0.418062        -2.118427
 H        -5.290425         0.760791        -0.864542
 H        -4.232405         0.993967        -3.785016
 H        -3.650169         2.013729        -2.592539
