19
Iteration:  4596
 C         1.568421        -0.429121         0.117546
 C         0.215569         0.060967         0.033750
 C        -0.931185         0.527160         0.045509
 C        -2.327701         0.880868        -0.385330
 O        -2.969272         1.649938         0.740790
 C        -3.407027        -0.183872        -0.829351
 C        -4.752132         0.297455        -1.334604
 C        -4.400079        -0.657267        -2.581508
 O        -3.090549        -0.914242        -1.982008
 H         2.135815         0.314449         0.686251
 H         1.734116        -1.488067         0.409031
 H         2.014486        -0.576698        -0.911144
 H        -2.110609         1.547417        -1.268558
 H        -2.209532         2.182045         0.996979
 H        -3.557892        -0.737752         0.148093
 H        -5.702501         0.041707        -0.768992
 H        -4.814317         1.383424        -1.513627
 H        -4.922107        -1.593947        -2.726451
 H        -4.297049        -0.031796        -3.451602
