19
Iteration:  3060charge 0 multiplicity 1
 C         1.656056        -0.203104         0.242584
 C         0.206649        -0.036408        -0.034767
 C        -0.990945         0.213946        -0.024536
 C        -2.420148         0.756861        -0.134218
 O        -3.114168         1.113469         1.200261
 C        -3.217837        -0.356681        -1.021880
 C        -4.793154        -0.122176        -1.272559
 C        -4.458390        -0.036302        -2.791192
 O        -2.913028        -0.104727        -2.428702
 H         2.256678         0.764575         0.385687
 H         1.699296        -0.736884         1.233599
 H         2.208458        -0.727197        -0.563088
 H        -2.297776         1.793842        -0.514368
 H        -3.741564         0.374464         1.281951
 H        -2.792869        -1.374172        -0.720200
 H        -5.474267        -0.865389        -0.854416
 H        -5.052841         0.898028        -0.916280
 H        -4.568973        -0.925873        -3.448580
 H        -4.678610         0.842383        -3.264803
