19
Iteration:  2871
 C         1.436637        -0.306636        -0.254888
 C         0.053210         0.103039        -0.015563
 C        -1.174032         0.259289        -0.022433
 C        -2.572431         0.801953         0.111055
 O        -3.161987         0.763203         1.462018
 C        -3.371634        -0.135505        -0.865683
 C        -4.689127         0.243637        -1.595553
 C        -3.904877        -0.082192        -2.861967
 O        -2.733960        -0.274516        -2.197963
 H         1.855850        -1.076560         0.405886
 H         1.482956        -0.458789        -1.311930
 H         2.160156         0.618402        -0.042007
 H        -2.484054         1.791034        -0.035624
 H        -2.823756        -0.170685         1.741747
 H        -3.410772        -1.142562        -0.378716
 H        -5.548461        -0.411795        -1.366994
 H        -5.152181         1.263376        -1.699878
 H        -4.366145        -0.827067        -3.491784
 H        -3.802758         0.760067        -3.436500
