19
Iteration:  1927
 C         1.352276        -0.389587         0.519758
 C         0.064901         0.065369         0.099441
 C        -0.971495         0.584207        -0.166438
 C        -2.426286         0.619153        -0.098382
 O        -3.034716         0.053097         1.097230
 C        -3.035633        -0.275289        -1.297687
 C        -4.623573        -0.061747        -1.260511
 C        -4.414867         0.620883        -2.590093
 O        -3.004158         0.250438        -2.616349
 H         1.524158        -1.521470         0.501682
 H         2.157121         0.058468        -0.259756
 H         1.758620        -0.020486         1.559166
 H        -2.852048         1.569390        -0.145301
 H        -2.357505        -0.314577         1.610139
 H        -2.659015        -1.279869        -1.273402
 H        -5.131221        -1.022330        -1.220965
 H        -5.097407         0.482084        -0.402805
 H        -4.941300         0.272905        -3.410902
 H        -4.218683         1.730896        -2.615841
