19
Iteration:    60
 C         1.492384        -0.089940         0.448312
 C         0.113454         0.015025         0.025151
 C        -1.071358         0.058207        -0.212289
 C        -2.567996         0.078188        -0.099771
 O        -2.887309        -0.969172         0.894078
 C        -3.228747        -0.119999        -1.394786
 C        -4.724000         0.117068        -1.459700
 C        -4.298082         1.332244        -2.193920
 O        -2.879727         0.967130        -2.286903
 H         1.957581        -1.064126         0.471263
 H         1.996383         0.424259        -0.403359
 H         1.861781         0.494375         1.460613
 H        -2.869449         1.092338         0.340365
 H        -3.818067        -0.862176         1.221840
 H        -2.928101        -1.094293        -1.815713
 H        -5.242861        -0.530283        -2.192389
 H        -5.370881         0.067238        -0.569233
 H        -4.624510         1.227607        -3.270796
 H        -4.357411         2.336077        -1.795997
