19
Iteration:  1741
 C         1.505315        -0.209898         0.060265
 C         0.118029         0.083637         0.080849
 C        -1.136834         0.194866        -0.008898
 C        -2.590908         0.441305         0.113684
 O        -3.255825        -0.144325         1.328012
 C        -3.205626        -0.216672        -1.127428
 C        -4.668342         0.135481        -1.440654
 C        -4.107272         0.540452        -2.864557
 O        -2.757673         0.532329        -2.394435
 H         1.888681         0.781224         0.185826
 H         1.782781        -0.909442         0.898157
 H         1.836385        -0.528013        -0.835693
 H        -2.865774         1.522809         0.043779
 H        -2.637956        -0.313122         1.998284
 H        -2.828053        -1.239737        -1.321047
 H        -5.376477        -0.720714        -1.472016
 H        -5.079862         0.852993        -0.723560
 H        -4.252878        -0.138398        -3.727579
 H        -4.318007         1.616159        -3.208980
