19
Iteration:  3831charge 0 multiplicity 1
 C         1.604855        -0.383200         0.329493
 C         0.199518         0.024366        -0.006403
 C        -0.962601         0.354293         0.146212
 C        -2.264169         0.761281        -0.349069
 O        -2.979719         1.539744         0.623475
 C        -3.183470        -0.282341        -0.944949
 C        -4.705862        -0.084874        -1.056752
 C        -4.621819        -0.478687        -2.496182
 O        -3.084566        -0.233018        -2.401406
 H         1.654674        -0.020855         1.410634
 H         1.661416        -1.456854         0.634251
 H         2.408105        -0.020357        -0.188271
 H        -2.025084         1.482132        -1.236745
 H        -3.849813         1.209859         0.718865
 H        -2.852673        -1.288406        -0.594565
 H        -5.212804        -0.606780        -0.194810
 H        -4.928983         0.987997        -0.923483
 H        -4.649927        -1.573403        -2.778797
 H        -5.062222         0.238388        -3.357051
