19
Iteration:   942
 C         1.437471         0.019823         0.055985
 C         0.028746         0.266184        -0.118082
 C        -1.183656         0.341749         0.169523
 C        -2.704375         0.291499         0.106389
 O        -3.089586        -0.457558         1.312623
 C        -3.360553        -0.299614        -1.151036
 C        -4.659872         0.418139        -1.513064
 C        -3.860435         0.986119        -2.655384
 O        -2.777294        -0.070068        -2.514393
 H         1.956755         1.001796        -0.036842
 H         1.802256        -0.294220         1.032382
 H         1.783565        -0.602787        -0.652454
 H        -3.130527         1.277667         0.285698
 H        -2.348526        -0.891915         1.782939
 H        -3.548239        -1.328493        -0.757567
 H        -5.465229        -0.166605        -1.955913
 H        -5.032072         1.065638        -0.698398
 H        -4.175708         0.934593        -3.662637
 H        -3.434524         1.893985        -2.317669
