19
Iteration:  4526charge 0 multiplicity 1
 C         1.413694        -0.199330         0.464679
 C         0.110243        -0.044573        -0.005773
 C        -0.937607         0.445895        -0.443596
 C        -2.306094         0.905841        -0.567744
 O        -2.553025         1.639326         0.728609
 C        -3.421468        -0.207793        -0.799692
 C        -4.893190         0.084440        -1.158297
 C        -4.400038        -0.432898        -2.572953
 O        -3.149546        -0.899420        -1.991954
 H         1.988374         0.588866         0.008882
 H         1.579141        -0.361074         1.536119
 H         1.835301        -1.194192         0.064102
 H        -2.381223         1.602219        -1.430259
 H        -2.451567         1.021093         1.485048
 H        -3.295097        -1.008318         0.052494
 H        -5.624805        -0.458885        -0.558300
 H        -5.227930         1.159180        -1.111396
 H        -4.927473        -1.331625        -2.932227
 H        -4.124735         0.296660        -3.383165
