19
Iteration:  1861charge 0 multiplicity 1
 C         1.587313        -0.254822         0.607631
 C         0.275343         0.038270         0.071429
 C        -0.926176         0.211635        -0.248388
 C        -2.526975         0.482806        -0.055495
 O        -2.998041         0.223023         1.237825
 C        -3.223941        -0.322425        -1.307997
 C        -4.757518        -0.172526        -1.436192
 C        -4.455692         0.686353        -2.714220
 O        -2.987538         0.457515        -2.475477
 H         1.506169        -0.811770         1.554700
 H         2.048757        -0.887240        -0.251849
 H         2.151586         0.672392         0.832723
 H        -2.665544         1.508257        -0.329279
 H        -2.612744        -0.675271         1.588575
 H        -2.911236        -1.335151        -1.421761
 H        -5.345162        -1.038119        -1.775015
 H        -5.429381         0.417402        -0.813881
 H        -4.978199         0.214037        -3.475078
 H        -4.749590         1.789111        -2.587396
