19
Iteration:   914
 C         1.410793         0.045933         0.064769
 C         0.003596         0.208137         0.144659
 C        -1.174220         0.224458        -0.167260
 C        -2.632471         0.263525         0.159385
 O        -3.014476        -0.412001         1.308993
 C        -3.426115        -0.279773        -1.073972
 C        -4.717395         0.358294        -1.609435
 C        -3.894153         0.937827        -2.745659
 O        -2.738420         0.120867        -2.317493
 H         1.800306         0.832534        -0.675989
 H         2.002648         0.141794         0.994437
 H         1.626288        -0.948881        -0.593687
 H        -2.967416         1.338052         0.379441
 H        -2.443064        -1.217758         1.569988
 H        -3.519017        -1.340701        -0.780621
 H        -5.441209        -0.319699        -2.113414
 H        -5.146938         1.039170        -0.850578
 H        -4.067302         0.703623        -3.874294
 H        -3.729035         2.071303        -2.651679
