19
Iteration:  1426charge 0 multiplicity 1
 C         1.407964        -0.223165         0.238867
 C         0.093389         0.282762        -0.027347
 C        -1.120451         0.444433        -0.145255
 C        -2.645805         0.409609         0.029262
 O        -3.077465        -0.208587         1.284285
 C        -3.210231        -0.356330        -1.145820
 C        -4.672178         0.180075        -1.431458
 C        -4.100324         0.843655        -2.634983
 O        -2.777592         0.159875        -2.492445
 H         1.635190        -0.154142         1.386005
 H         1.525683        -1.255995         0.107639
 H         2.179605         0.414738        -0.197137
 H        -3.052326         1.357854         0.061924
 H        -2.626007        -1.137571         1.291630
 H        -3.108728        -1.482120        -1.067109
 H        -5.343080        -0.602960        -1.790234
 H        -5.049443         0.694905        -0.525171
 H        -4.653911         0.770790        -3.654379
 H        -3.942741         1.959344        -2.360339
