19
Iteration:  1943
 C         1.452632        -0.410397         0.429920
 C         0.124159         0.090168         0.122879
 C        -0.996682         0.576118         0.034520
 C        -2.468809         0.607181        -0.191625
 O        -3.060004         0.023820         0.997054
 C        -3.129362        -0.268189        -1.215882
 C        -4.595681        -0.090986        -1.222050
 C        -4.388812         0.664581        -2.594974
 O        -2.969985         0.225538        -2.608559
 H         1.497703        -1.462142         0.148431
 H         2.253490         0.108479         0.012547
 H         1.571535        -0.249673         1.471927
 H        -2.862106         1.736838        -0.365027
 H        -2.471856         0.366264         1.706164
 H        -2.641610        -1.274855        -1.101135
 H        -5.308433        -0.935355        -1.334448
 H        -5.023040         0.651946        -0.509238
 H        -4.871742         0.085394        -3.492313
 H        -4.723329         1.722685        -2.595668
