19
Iteration:  4740
 C         1.201579        -0.544192        -0.024406
 C        -0.123251         0.024397         0.058101
 C        -1.042097         0.639216        -0.384999
 C        -2.430145         1.144148        -0.348371
 O        -2.664467         1.803168         0.942558
 C        -3.359264        -0.129659        -0.706706
 C        -4.714393         0.170685        -1.458185
 C        -4.150947        -0.843816        -2.575107
 O        -2.846115        -0.864885        -1.806794
 H         1.102403        -1.640324         0.302574
 H         1.521382        -0.455803        -1.102791
 H         2.014706        -0.225784         0.642623
 H        -2.743291         1.905673        -1.110087
 H        -2.607727         1.053020         1.643490
 H        -3.536260        -0.829522         0.200658
 H        -5.656236        -0.352124        -1.158620
 H        -5.033256         1.226890        -1.651988
 H        -4.616027        -1.869807        -2.526650
 H        -3.929965        -0.565196        -3.597447
