19
Iteration:  3333
 C         1.441057        -0.287195        -0.262804
 C         0.108041         0.013100         0.155359
 C        -1.047918         0.404262         0.276956
 C        -2.399427         0.802778        -0.110221
 O        -3.208055         0.953143         1.093434
 C        -3.260792        -0.214587        -0.888409
 C        -4.724387         0.267935        -1.440235
 C        -4.125564        -0.226491        -2.732998
 O        -2.799526        -0.463504        -2.195587
 H         1.482428         0.081525        -1.294968
 H         2.214620         0.049720         0.371033
 H         1.583825        -1.432564        -0.476083
 H        -2.304169         1.759440        -0.604643
 H        -3.490603         1.896712         1.206805
 H        -3.255973        -1.097032        -0.234888
 H        -5.568851        -0.300207        -1.011989
 H        -4.889063         1.358933        -1.298372
 H        -4.528752        -1.173843        -3.047531
 H        -4.101877         0.662634        -3.402202
