19
Iteration:  4164
 C         1.449373        -0.432458        -0.031168
 C         0.080377         0.153273        -0.120093
 C        -1.089988         0.450700         0.027175
 C        -2.442898         0.855449        -0.303896
 O        -2.957548         1.545789         0.919513
 C        -3.444878        -0.287125        -0.679922
 C        -4.690277         0.295798        -1.454275
 C        -4.104448        -0.419202        -2.619928
 O        -2.952429        -0.889940        -1.942935
 H         2.275352         0.251526         0.140694
 H         1.291095        -1.111338         0.795873
 H         1.706496        -1.026680        -0.963537
 H        -2.449317         1.622674        -1.179999
 H        -2.121469         1.972889         1.313091
 H        -3.390174        -1.115153         0.156742
 H        -5.683147        -0.097590        -1.184536
 H        -4.651342         1.400355        -1.442195
 H        -4.693849        -1.269656        -3.018294
 H        -3.905987         0.248384        -3.518456
