19
Iteration:  3499charge 0 multiplicity 1
 C         1.291898        -0.403596        -0.311244
 C        -0.061833         0.238337        -0.289749
 C        -1.230716         0.578159        -0.172114
 C        -2.608544         0.850028         0.047056
 O        -3.198553         0.988507         1.346133
 C        -3.292282        -0.160093        -0.780399
 C        -4.492301         0.344152        -1.603281
 C        -3.854678        -0.376219        -2.726671
 O        -2.684652        -0.683960        -1.907301
 H         1.613725        -0.695897         0.785925
 H         1.163212        -1.273441        -0.965711
 H         2.077941         0.439205        -0.663555
 H        -2.795108         1.896292        -0.326294
 H        -2.572291         1.062323         2.141028
 H        -3.620403        -1.025838        -0.069728
 H        -5.477230         0.130342        -1.084405
 H        -4.491917         1.479839        -1.644395
 H        -4.270260        -1.281870        -3.007757
 H        -3.606837         0.306904        -3.606589
