19
Iteration:   940
 C         1.446671         0.023189         0.053659
 C         0.028858         0.268412        -0.099363
 C        -1.193814         0.325276         0.148622
 C        -2.697286         0.297780         0.103216
 O        -3.089338        -0.461941         1.326958
 C        -3.359723        -0.285937        -1.145107
 C        -4.676752         0.417745        -1.518945
 C        -3.852881         0.976961        -2.666615
 O        -2.778775        -0.063476        -2.503269
 H         1.963446         0.945425        -0.092012
 H         1.782089        -0.256211         1.125427
 H         1.796698        -0.644406        -0.719137
 H        -3.199838         1.271499         0.248557
 H        -2.278240        -0.921542         1.779241
 H        -3.491406        -1.291377        -0.799502
 H        -5.424103        -0.199228        -1.966884
 H        -5.024559         1.045360        -0.725031
 H        -4.240503         0.977822        -3.656994
 H        -3.429427         1.932899        -2.353455
