19
Iteration:  3762charge 0 multiplicity 1
 C         1.424538        -0.368115         0.559873
 C         0.106233         0.071663         0.156833
 C        -0.919885         0.544594        -0.299038
 C        -2.338220         0.952247        -0.525162
 O        -2.682757         1.269725         0.895857
 C        -3.114774        -0.296968        -1.060166
 C        -4.656215        -0.119794        -0.964691
 C        -4.636997        -0.264282        -2.545939
 O        -3.163618        -0.518199        -2.500911
 H         2.040513         0.516185         0.670452
 H         1.389891        -0.646330         1.581740
 H         1.957751        -1.091643        -0.106838
 H        -2.406261         1.880655        -1.128819
 H        -3.519698         1.731301         0.846344
 H        -2.685450        -1.184813        -0.450472
 H        -5.314809        -0.928572        -0.624438
 H        -5.121818         0.785520        -0.540854
 H        -5.301149        -1.186704        -2.818060
 H        -4.950905         0.638015        -3.100727
