19
Iteration:  1339charge 0 multiplicity 1
 C         1.648558        -0.153884         0.421015
 C         0.216934        -0.005031         0.188077
 C        -1.006483         0.026143         0.013783
 C        -2.483590         0.320435        -0.119790
 O        -3.190709        -0.069907         1.058207
 C        -3.158365        -0.242617        -1.336802
 C        -4.742810        -0.032899        -1.322187
 C        -4.392506         0.791023        -2.608645
 O        -2.944731         0.609582        -2.532207
 H         2.154368         0.881877         0.524568
 H         1.820866        -0.706200         1.293582
 H         2.001876        -0.786318        -0.400615
 H        -2.650337         1.467191        -0.365578
 H        -2.622339         0.417753         1.757780
 H        -2.731082        -1.262723        -1.479941
 H        -5.407540        -0.858541        -1.564713
 H        -5.044148         0.371312        -0.339125
 H        -4.726118         0.292686        -3.551871
 H        -4.705530         1.868873        -2.598137
