19
Iteration:  4007charge 0 multiplicity 1
 C         1.325586        -0.490651         0.047107
 C         0.027565         0.104960        -0.016737
 C        -1.051375         0.560732        -0.374856
 C        -2.410302         1.051196        -0.264406
 O        -2.849945         1.399781         1.107247
 C        -3.391564        -0.156654        -0.743145
 C        -4.743652         0.161589        -1.422760
 C        -4.092855        -0.446278        -2.756162
 O        -2.913698        -0.878945        -1.902592
 H         1.531695        -1.186493        -0.786063
 H         2.057693         0.349223        -0.014425
 H         1.383494        -1.007418         0.946193
 H        -2.667442         1.825666        -0.911985
 H        -2.523261         2.270392         1.356793
 H        -3.384357        -0.753645         0.230166
 H        -5.595485        -0.438794        -1.078107
 H        -5.045011         1.212448        -1.356895
 H        -4.703244        -1.299092        -3.021157
 H        -3.880838         0.038827        -3.728514
