19
Iteration:  2195
 C         1.370924        -0.204231        -0.236389
 C        -0.007517         0.172775        -0.045408
 C        -1.238829         0.245653        -0.039072
 C        -2.680271         0.535758         0.184567
 O        -2.995918         0.029611         1.433652
 C        -3.446199        -0.128771        -0.966170
 C        -4.725646         0.423552        -1.668147
 C        -3.842366         0.250826        -2.891376
 O        -2.603264         0.023043        -2.078682
 H         1.835314        -0.363185         0.830205
 H         1.598629        -1.186979        -0.705725
 H         1.790652         0.663801        -0.774667
 H        -2.712341         1.670201         0.178237
 H        -3.403713         0.672316         2.011835
 H        -3.468649        -1.183871        -0.576254
 H        -5.671377        -0.220391        -1.656970
 H        -4.910931         1.523775        -1.509143
 H        -4.179923        -0.438733        -3.646908
 H        -3.534837         1.220668        -3.339172
