19
Iteration:  3380charge 0 multiplicity 1
 C         1.390441        -0.384887        -0.307258
 C        -0.038653         0.034686        -0.262045
 C        -1.183544         0.420105        -0.014778
 C        -2.602835         0.817244         0.039695
 O        -3.262554         1.088335         1.383320
 C        -3.377008        -0.205259        -0.755856
 C        -4.588139         0.273355        -1.498407
 C        -3.871459        -0.398256        -2.823730
 O        -2.596101        -0.402406        -2.074329
 H         2.034141         0.465899        -0.701919
 H         1.588237        -0.689271         0.725286
 H         1.563298        -1.161670        -0.955867
 H        -2.737364         1.736191        -0.487558
 H        -2.716776         1.545825         1.995409
 H        -3.572746        -1.024133        -0.159959
 H        -5.611180        -0.002597        -1.110727
 H        -4.539562         1.391180        -1.659380
 H        -4.265438        -1.447322        -2.842246
 H        -3.840512         0.292199        -3.733823
