19
Iteration:  3406
 C         1.185337        -0.408656        -0.311820
 C        -0.099212         0.117660        -0.156105
 C        -1.206647         0.588623        -0.016787
 C        -2.569707         0.902414        -0.014543
 O        -3.027801         0.977003         1.367275
 C        -3.412907        -0.117145        -0.782470
 C        -4.655998         0.218529        -1.646715
 C        -3.791732        -0.408328        -2.762633
 O        -2.604608        -0.471118        -1.963605
 H         1.908821         0.401414        -0.357001
 H         1.533614        -1.170375         0.459685
 H         1.229778        -0.797550        -1.378483
 H        -2.761744         1.933058        -0.429655
 H        -2.415529         0.621954         1.978326
 H        -3.604084        -0.938627        -0.030784
 H        -5.689188        -0.053256        -1.565502
 H        -4.647635         1.272934        -1.830398
 H        -4.226313        -1.474782        -2.819934
 H        -3.684343         0.164326        -3.641353
