19
Iteration:  2269charge 0 multiplicity 1
 C         1.413306        -0.128622        -0.270496
 C         0.010680         0.059512         0.015556
 C        -1.183114         0.217295         0.282854
 C        -2.556539         0.507173         0.091950
 O        -3.228120         0.262116         1.283555
 C        -3.222986        -0.286797        -1.015857
 C        -4.583003         0.410206        -1.403900
 C        -3.964497         0.478353        -2.793303
 O        -2.711617        -0.196535        -2.320244
 H         1.752470        -1.152961        -0.107820
 H         1.610547         0.357869        -1.293345
 H         1.983523         0.554605         0.409403
 H        -2.528075         1.611703        -0.235436
 H        -4.187875         0.464617         0.988741
 H        -3.203265        -1.350483        -0.657177
 H        -5.356928        -0.299505        -1.184089
 H        -4.724548         1.378384        -0.966454
 H        -4.366230        -0.446663        -3.408277
 H        -3.995442         1.492895        -3.295018
