19
Iteration:  2090
 C         1.520306        -0.211336        -0.159055
 C         0.118744         0.127470         0.141081
 C        -1.072494         0.250729         0.263962
 C        -2.542527         0.501055         0.124759
 O        -3.244817         0.223048         1.345209
 C        -3.197620        -0.238447        -1.070239
 C        -4.722560         0.267540        -1.473341
 C        -4.112153         0.315733        -2.889518
 O        -2.739590         0.189881        -2.379272
 H         2.024315         0.620771        -0.519983
 H         1.993197        -0.532467         0.777781
 H         1.716947        -1.041821        -0.883470
 H        -2.813428         1.639042        -0.173051
 H        -3.741287        -0.637975         1.088102
 H        -3.220112        -1.390176        -0.832105
 H        -5.618633        -0.312185        -1.342992
 H        -5.152921         1.253360        -1.271789
 H        -4.073839        -0.771411        -3.458762
 H        -4.348676         1.181726        -3.542434
