19
Iteration:  4241
 C         1.311149        -0.503198         0.361242
 C         0.126671         0.111774        -0.185958
 C        -1.027340         0.540572        -0.368975
 C        -2.421206         1.040660        -0.356009
 O        -2.735082         1.432124         1.040785
 C        -3.360309        -0.137003        -0.814780
 C        -4.771923         0.179555        -1.320899
 C        -4.373152        -0.726560        -2.514935
 O        -2.886527        -0.640369        -2.169952
 H         1.361696        -0.357900         1.428300
 H         1.215502        -1.597854         0.283678
 H         2.139013        -0.112546        -0.352307
 H        -2.684765         1.969712        -0.959445
 H        -2.126183         2.091066         1.389167
 H        -3.104366        -0.961702        -0.161370
 H        -5.602726        -0.025764        -0.626030
 H        -4.884321         1.118063        -1.873330
 H        -4.712780        -1.762613        -2.589178
 H        -4.543289        -0.324015        -3.544565
