19
Iteration:  3258
 C         1.597536        -0.268078         0.313500
 C         0.212091         0.013968        -0.131658
 C        -0.998487         0.303148        -0.186833
 C        -2.404732         0.766704        -0.232879
 O        -3.033301         0.983633         1.121761
 C        -3.287281        -0.265624        -0.914362
 C        -4.824363         0.065894        -1.250806
 C        -4.304713        -0.008213        -2.662703
 O        -2.933749        -0.367209        -2.315388
 H         2.021019        -1.198732        -0.080932
 H         2.191243         0.598903         0.243506
 H         1.676208        -0.387959         1.368526
 H        -2.474752         1.685814        -0.859926
 H        -3.817633         1.479628         0.952839
 H        -2.991955        -1.200887        -0.497778
 H        -5.528880        -0.757153        -1.002412
 H        -5.345456         1.050981        -1.024039
 H        -4.876996        -0.679398        -3.469068
 H        -4.343133         1.012901        -3.216215
