19
Iteration:  3231charge 0 multiplicity 1
 C         1.452511        -0.205244         0.442531
 C         0.078996        -0.026168         0.018293
 C        -1.012268         0.367634        -0.325717
 C        -2.381504         0.746609        -0.326112
 O        -2.730254         0.981588         1.147434
 C        -3.303497        -0.340708        -0.951273
 C        -4.771677        -0.001167        -1.249774
 C        -4.377755         0.076432        -2.734456
 O        -3.006693        -0.340064        -2.324932
 H         1.731856        -1.269314         0.317207
 H         2.170413         0.365349        -0.254807
 H         1.697759         0.190688         1.537216
 H        -2.611679         1.633493        -0.889263
 H        -3.665920         1.044516         1.227264
 H        -2.896443        -1.304671        -0.518395
 H        -5.378753        -0.895537        -1.110026
 H        -5.228919         0.869960        -0.837348
 H        -4.891109        -0.588995        -3.357389
 H        -4.432731         1.045932        -3.231872
