19
Iteration:  1008
 C         1.503166         0.149499        -0.103421
 C         0.017749         0.154913         0.114984
 C        -1.186383         0.036372         0.081267
 C        -2.583770         0.210940         0.048964
 O        -3.228577        -0.188934         1.334120
 C        -3.367916        -0.386669        -1.136255
 C        -4.748740         0.303928        -1.561422
 C        -3.806504         1.016750        -2.644414
 O        -2.761594         0.078044        -2.336187
 H         2.038590         0.692602         0.776876
 H         2.013184        -0.857535        -0.164870
 H         1.589443         0.724663        -0.955741
 H        -2.617166         1.335120         0.010437
 H        -2.639630        -0.954610         1.425935
 H        -3.296641        -1.519760        -1.156233
 H        -5.341559        -0.507921        -2.026208
 H        -5.220432         0.990802        -0.828343
 H        -4.098882         0.697379        -3.649473
 H        -3.614496         2.086766        -2.455194
