19
Iteration:  4571charge 0 multiplicity 1
 C         1.481710        -0.303531         0.204301
 C         0.114075         0.013922        -0.087842
 C        -1.075540         0.289212        -0.218635
 C        -2.363063         0.885555        -0.328664
 O        -2.880673         1.717380         0.677246
 C        -3.346456        -0.299021        -0.721752
 C        -4.715759         0.278973        -1.240576
 C        -4.364213        -0.547819        -2.519931
 O        -2.998787        -0.843185        -2.029074
 H         1.825919         0.606357         0.620325
 H         1.531318        -1.056850         1.056040
 H         2.178890        -0.883802        -0.508501
 H        -2.220081         1.466439        -1.300312
 H        -2.136859         1.927779         1.313849
 H        -3.377819        -1.024295         0.213242
 H        -5.731340        -0.002877        -0.911855
 H        -4.599099         1.412222        -1.347308
 H        -4.928281        -1.496734        -2.528811
 H        -4.333533         0.025887        -3.499863
