19
Iteration:  3938charge 0 multiplicity 1
 C         1.364863        -0.588607         0.230434
 C         0.220379         0.292150        -0.127026
 C        -0.938865         0.574952        -0.293747
 C        -2.345686         1.010256        -0.284111
 O        -3.083212         1.318096         0.973251
 C        -3.270486        -0.237502        -0.865307
 C        -4.670721         0.206995        -1.220501
 C        -4.397683        -0.585475        -2.496293
 O        -2.878898        -0.670517        -2.212992
 H         0.933336        -1.549197         0.655283
 H         2.076480        -0.647962        -0.605112
 H         1.812991        -0.105516         1.173604
 H        -2.444541         1.968863        -0.834602
 H        -2.986834         2.239176         1.075182
 H        -3.144366        -1.113772        -0.195367
 H        -5.582731        -0.046147        -0.634108
 H        -4.644112         1.301187        -1.365230
 H        -4.731269        -1.591427        -2.796001
 H        -4.521101        -0.119830        -3.436658
