19
Iteration:   950charge 0 multiplicity 1
 C         1.419428         0.074472         0.051141
 C        -0.018541         0.236623        -0.145188
 C        -1.165101         0.411400         0.202765
 C        -2.634562         0.284194         0.167118
 O        -3.139648        -0.434026         1.234012
 C        -3.377595        -0.410949        -1.158358
 C        -4.628208         0.419578        -1.483575
 C        -3.830452         1.011709        -2.621917
 O        -2.800422        -0.093670        -2.511662
 H         1.917067         0.998928         0.088418
 H         1.674141        -0.636642         0.989140
 H         1.914124        -0.606649        -0.770292
 H        -2.872249         1.368068         0.344558
 H        -2.330457        -0.806887         1.725704
 H        -3.538872        -1.447455        -1.005402
 H        -5.500909        -0.164521        -1.698335
 H        -4.996668         1.141053        -0.794400
 H        -4.132245         0.983553        -3.659860
 H        -3.370436         2.024056        -2.397501
