19
Iteration:  1004charge 0 multiplicity 1
 C         1.479926         0.142803        -0.088882
 C         0.032178         0.166384         0.132981
 C        -1.175849         0.063440         0.040221
 C        -2.597690         0.228355         0.025262
 O        -3.241792        -0.213704         1.304699
 C        -3.347831        -0.373827        -1.118576
 C        -4.734580         0.316889        -1.546435
 C        -3.816132         0.978366        -2.610348
 O        -2.765416         0.051300        -2.341206
 H         1.967581         0.743532         0.632112
 H         1.922423        -0.919160        -0.085665
 H         1.727092         0.750341        -1.057648
 H        -2.627036         1.326770         0.215929
 H        -2.637865        -0.970763         1.459585
 H        -3.291144        -1.427242        -1.051766
 H        -5.446546        -0.343186        -2.019480
 H        -5.165428         0.942944        -0.792236
 H        -3.980973         0.897698        -3.712659
 H        -3.533269         2.067222        -2.475647
