19
Iteration:  3897charge 0 multiplicity 1
 C         1.473456        -0.406474         0.180170
 C         0.052640        -0.063499         0.235174
 C        -0.985282         0.516792        -0.029126
 C        -2.312421         0.961172        -0.403998
 O        -2.862928         1.522303         0.823798
 C        -3.269100        -0.190234        -0.916831
 C        -4.832037        -0.038791        -1.165926
 C        -4.353581        -0.652400        -2.569114
 O        -3.011180        -0.371527        -2.328886
 H         1.719552        -1.117336         1.008638
 H         1.816569        -0.891183        -0.754757
 H         2.162891         0.330526         0.348418
 H        -2.200342         1.587596        -1.297095
 H        -2.270175         1.483190         1.638698
 H        -3.166655        -1.151299        -0.298421
 H        -5.650223        -0.497163        -0.573905
 H        -5.171098         0.999566        -1.354030
 H        -4.693852        -1.713048        -2.598623
 H        -4.933972        -0.174320        -3.480312
