19
Iteration:  4619
 C         1.529851        -0.471092         0.013435
 C         0.236422         0.145775         0.252337
 C        -0.906721         0.447787        -0.030006
 C        -2.288333         1.033671        -0.403724
 O        -3.051857         1.539723         0.722961
 C        -3.321992        -0.084552        -0.737605
 C        -4.694609         0.318437        -1.469533
 C        -4.381859        -0.669137        -2.521759
 O        -3.117403        -0.977924        -1.954230
 H         2.457844        -0.262538         0.637265
 H         1.446164        -1.540088        -0.283665
 H         1.694920        -0.287898        -1.041861
 H        -2.179495         1.848572        -1.166801
 H        -2.649284         2.365286         1.038592
 H        -3.371100        -0.686265         0.219312
 H        -5.556515         0.003422        -0.807142
 H        -4.863948         1.374170        -1.638429
 H        -5.084634        -1.488362        -2.487086
 H        -4.351711        -0.202707        -3.470638
