19
Iteration:  2326
 C         1.522966        -0.147625        -0.171190
 C         0.046195        -0.011133         0.049660
 C        -1.129692         0.179068         0.258081
 C        -2.535358         0.546410         0.054880
 O        -3.186595         0.464621         1.331392
 C        -3.226746        -0.331486        -1.069956
 C        -4.693759         0.088590        -1.450956
 C        -4.063400         0.489373        -2.735968
 O        -2.776629        -0.061820        -2.416574
 H         1.909045        -0.905113        -0.903424
 H         2.091080         0.821882        -0.324079
 H         1.788733        -0.548354         0.777719
 H        -2.536882         1.620356        -0.333702
 H        -3.770844         1.208263         1.344878
 H        -3.031124        -1.379616        -0.793854
 H        -5.368519        -0.745040        -1.351258
 H        -5.197854         0.935084        -0.971600
 H        -4.367584        -0.054804        -3.766571
 H        -4.234843         1.594807        -2.988465
