19
Iteration:  4136charge 0 multiplicity 1
 C         1.479516        -0.433950        -0.167572
 C         0.198265         0.213353         0.004505
 C        -1.019460         0.409887         0.040857
 C        -2.386276         0.781445        -0.199025
 O        -3.169877         1.626357         0.758127
 C        -3.414574        -0.310919        -0.638916
 C        -4.599213         0.365070        -1.418514
 C        -4.057872        -0.316835        -2.658177
 O        -3.039086        -1.012572        -1.895556
 H         2.389473         0.127990        -0.551940
 H         1.544085        -1.000375         0.789152
 H         1.374666        -1.233702        -0.916093
 H        -2.269008         1.499823        -1.085353
 H        -3.022538         1.354618         1.700821
 H        -3.517751        -0.967223         0.187381
 H        -5.515160        -0.169754        -1.136359
 H        -4.719714         1.452345        -1.369529
 H        -4.761728        -1.051405        -3.129275
 H        -3.659049         0.439065        -3.310715
