19
Iteration:  1588
 C         1.407913         0.075017        -0.416896
 C        -0.023255        -0.021727         0.030216
 C        -1.169099         0.096576         0.388632
 C        -2.584989         0.418599         0.275038
 O        -3.423346        -0.248052         1.313248
 C        -3.161575        -0.152502        -1.047592
 C        -4.670003         0.322962        -1.547267
 C        -3.885751         0.562377        -2.875795
 O        -2.550028         0.244496        -2.258369
 H         1.621227        -0.451842        -1.399553
 H         1.658668         1.174378        -0.708027
 H         1.992400        -0.416898         0.304033
 H        -2.790970         1.483400         0.255279
 H        -3.518914         0.383277         2.057525
 H        -3.290409        -1.233533        -0.886941
 H        -5.340788        -0.553103        -1.460800
 H        -5.141126         1.262996        -1.194112
 H        -3.904264        -0.044787        -3.765941
 H        -3.760518         1.577533        -3.207230
