19
Iteration:  2708charge 0 multiplicity 1
 C         1.464747        -0.284960         0.128813
 C         0.028814        -0.015993        -0.168780
 C        -1.145235         0.361868        -0.131125
 C        -2.542569         0.764985        -0.179323
 O        -2.909315         0.644678         1.274492
 C        -3.372239        -0.329921        -0.961790
 C        -4.740268         0.055020        -1.354802
 C        -4.060808         0.349171        -2.687645
 O        -2.796932        -0.230836        -2.241972
 H         2.254632        -0.011095        -0.583689
 H         1.597875         0.087783         1.128459
 H         1.526385        -1.298888         0.401052
 H        -2.645903         1.801073        -0.456926
 H        -3.853515         0.597521         1.280446
 H        -3.127923        -1.228071        -0.395343
 H        -5.354745        -0.805996        -1.499862
 H        -5.331197         0.841813        -0.994517
 H        -4.387822        -0.147608        -3.679179
 H        -4.046641         1.499311        -2.932958
