19
Iteration:  2978charge 0 multiplicity 1
 C         1.449705        -0.461355        -0.061955
 C         0.152622         0.214560         0.039385
 C        -1.006035         0.648742         0.183516
 C        -2.504221         0.816747        -0.063059
 O        -3.123282         0.612740         1.281380
 C        -3.251185        -0.174978        -0.952669
 C        -4.706362         0.139577        -1.442556
 C        -4.179560        -0.215362        -2.804306
 O        -2.868857        -0.200806        -2.377265
 H         1.618238        -0.458686        -1.090880
 H         2.262696         0.106037         0.339367
 H         1.429867        -1.404970         0.430176
 H        -2.655523         1.919615        -0.346607
 H        -3.054916         1.535434         1.726702
 H        -3.029549        -1.114605        -0.469417
 H        -5.411559        -0.570760        -0.949926
 H        -5.009828         1.230660        -1.502348
 H        -4.441472        -1.258591        -3.157317
 H        -4.381966         0.574565        -3.688892
