19
Iteration:  1884
 C         1.435107        -0.350846         0.616295
 C         0.166153         0.122431         0.075839
 C        -0.977252         0.366099        -0.192352
 C        -2.438141         0.485087        -0.172039
 O        -2.825227         0.178058         1.183196
 C        -3.216695        -0.249533        -1.227550
 C        -4.786565        -0.197669        -1.414954
 C        -4.367205         0.688911        -2.685782
 O        -3.029169         0.381950        -2.489922
 H         1.453121        -1.193124         1.335178
 H         2.101708        -0.528058        -0.316199
 H         1.808777         0.478519         1.142643
 H        -2.566357         1.557908        -0.407014
 H        -2.951236        -0.749516         1.322590
 H        -2.848992        -1.252786        -1.277422
 H        -5.279690        -1.116714        -1.743337
 H        -5.349857         0.264490        -0.573830
 H        -4.706398         0.287298        -3.595054
 H        -4.858489         1.692962        -2.454682
