19
Iteration:  4344
 C         1.445588        -0.445861         0.293495
 C         0.119169         0.019065         0.015371
 C        -1.017998         0.446899        -0.028640
 C        -2.298207         0.839149        -0.436441
 O        -2.926616         1.737872         0.550196
 C        -3.198290        -0.301770        -0.883174
 C        -4.670344         0.023407        -0.974211
 C        -4.484923        -0.589484        -2.468592
 O        -3.064055        -0.524264        -2.271040
 H         1.595366        -1.378073         0.809177
 H         2.024347        -0.187861        -0.593446
 H         1.896078         0.275972         1.007592
 H        -2.209146         1.544783        -1.302474
 H        -2.550829         1.422256         1.414700
 H        -3.031300        -1.199100        -0.232669
 H        -5.379983        -0.442594        -0.276656
 H        -4.946414         1.115570        -0.985530
 H        -4.716083        -1.677487        -2.626381
 H        -4.664771        -0.003696        -3.384744
