19
Iteration:   493charge 0 multiplicity 1
 C         1.555222         0.155029         0.207522
 C         0.072505         0.240402         0.013327
 C        -1.155220         0.170135        -0.003320
 C        -2.593534         0.124140         0.115476
 O        -3.306828        -0.871706         0.996166
 C        -3.247382        -0.182441        -1.165157
 C        -4.657234         0.319753        -1.372323
 C        -4.039888         1.064028        -2.626141
 O        -2.727627         0.497216        -2.396755
 H         1.980024        -0.001212        -0.743515
 H         2.017825         0.995972         0.690712
 H         1.737531        -0.630887         0.841069
 H        -2.959855         1.035354         0.460569
 H        -2.651485        -1.526372         1.184336
 H        -3.095849        -1.235687        -1.371271
 H        -5.258167        -0.561906        -1.678887
 H        -5.124858         0.850524        -0.493524
 H        -4.452614         0.987632        -3.631608
 H        -3.950617         2.128538        -2.359958
