19
Iteration:  1882charge 0 multiplicity 1
 C         1.455774        -0.352671         0.612224
 C         0.154397         0.122759         0.073394
 C        -0.964684         0.362962        -0.201382
 C        -2.427885         0.471046        -0.180206
 O        -2.841447         0.183738         1.196279
 C        -3.229086        -0.254827        -1.211594
 C        -4.798593        -0.188333        -1.433737
 C        -4.378524         0.686821        -2.688014
 O        -3.027272         0.396241        -2.493511
 H         1.439363        -1.162435         1.358148
 H         2.183822        -0.584930        -0.287679
 H         1.911704         0.561533         1.189290
 H        -2.566488         1.472170        -0.382446
 H        -2.951057        -0.724188         1.346211
 H        -2.852257        -1.262377        -1.262453
 H        -5.296899        -1.137458        -1.706275
 H        -5.315348         0.191477        -0.542877
 H        -4.633658         0.298408        -3.646735
 H        -4.841564         1.671047        -2.440164
