19
Iteration:  1471
 C         1.554125        -0.094491        -0.058288
 C         0.067240         0.172208         0.129788
 C        -1.160463         0.349414         0.076224
 C        -2.623608         0.443369         0.141514
 O        -3.266610        -0.192776         1.295347
 C        -3.273815        -0.298198        -1.087582
 C        -4.659194         0.179380        -1.483241
 C        -3.970705         0.849365        -2.725682
 O        -2.749780         0.084181        -2.468734
 H         2.094168        -0.772729         0.712505
 H         1.698658        -0.593622        -0.941195
 H         2.123756         0.880953        -0.058738
 H        -2.908331         1.418823         0.073378
 H        -2.901361        -1.149923         1.393185
 H        -3.272988        -1.387633        -0.840534
 H        -5.392835        -0.608208        -1.678474
 H        -5.082275         0.967680        -0.874647
 H        -4.493294         0.518602        -3.676561
 H        -3.899761         2.003018        -2.712461
