19
Iteration:  4806
 C         1.286376        -0.753688         0.061957
 C         0.155652         0.122882        -0.277513
 C        -0.964940         0.666769        -0.272949
 C        -2.381839         1.104274        -0.437556
 O        -3.100530         1.657718         0.769387
 C        -3.291184        -0.107299        -0.636274
 C        -4.701647         0.156011        -1.298859
 C        -4.192392        -0.681939        -2.457650
 O        -2.831675        -0.880362        -1.773734
 H         1.037611        -1.528883        -0.582376
 H         2.240002        -0.214311         0.074732
 H         1.282513        -1.002105         1.104773
 H        -2.339246         1.878795        -1.244925
 H        -2.825516         2.507700         1.048388
 H        -3.180211        -0.723193         0.253270
 H        -5.532391        -0.166137        -0.621397
 H        -4.974102         1.220866        -1.611374
 H        -4.708565        -1.664798        -2.638039
 H        -4.089998        -0.057350        -3.357059
