19
Iteration:   174charge 0 multiplicity 1
 C         1.591257        -0.056663         0.373928
 C         0.143354        -0.054176         0.076718
 C        -1.061734         0.073327        -0.032593
 C        -2.513209         0.026400         0.000528
 O        -2.998891        -0.898512         1.010623
 C        -3.118743        -0.099793        -1.422669
 C        -4.781779         0.141456        -1.443785
 C        -4.330918         1.220675        -2.444988
 O        -2.920455         1.014400        -2.332520
 H         2.238640         0.485162        -0.481189
 H         1.702155         0.462146         1.395026
 H         2.051524        -1.122280         0.445135
 H        -2.868311         1.098194         0.222292
 H        -3.862568        -1.278231         0.577838
 H        -2.864082        -1.108336        -1.839503
 H        -5.459085        -0.627126        -1.919943
 H        -5.114588         0.658987        -0.539442
 H        -4.661730         1.102786        -3.458084
 H        -4.672844         2.210863        -2.011603
