19
Iteration:  1805charge 0 multiplicity 1
 C         1.627128        -0.098043         0.222118
 C         0.175174        -0.149965         0.366390
 C        -0.986176         0.093223         0.087415
 C        -2.441876         0.477888        -0.073461
 O        -3.376579         0.022760         1.026263
 C        -3.086308        -0.247781        -1.313767
 C        -4.573473         0.003210        -1.208265
 C        -4.386896         0.646317        -2.705075
 O        -2.955880         0.480252        -2.585324
 H         2.013043         0.135065         1.223978
 H         2.248560        -1.030217         0.083580
 H         2.063739         0.573084        -0.591677
 H        -2.501896         1.591128        -0.327540
 H        -2.944046         0.324707         1.852220
 H        -2.778473        -1.274900        -1.406329
 H        -5.236382        -0.881279        -1.099865
 H        -4.969742         0.715085        -0.497726
 H        -4.953789         0.109800        -3.436325
 H        -4.653040         1.747089        -2.841280
