19
Iteration:  1567charge 0 multiplicity 1
 C         1.382515         0.140823        -0.385547
 C         0.045831        -0.044258        -0.018876
 C        -1.130824        -0.062044         0.331154
 C        -2.605972         0.299009         0.226389
 O        -3.426639        -0.100278         1.286770
 C        -3.301633        -0.270447        -1.039215
 C        -4.592995         0.276011        -1.566031
 C        -3.839249         0.614266        -2.817849
 O        -2.591735         0.335767        -2.191328
 H         1.774270        -0.565476        -1.190743
 H         1.457988         1.110369        -0.919919
 H         1.947538         0.073389         0.515408
 H        -2.673344         1.491591         0.221058
 H        -3.578412         0.702395         1.865096
 H        -3.254766        -1.316377        -0.793381
 H        -5.431842        -0.424179        -1.720082
 H        -4.855719         1.068522        -0.839683
 H        -3.947380        -0.137882        -3.618866
 H        -3.728180         1.530733        -3.259218
