19
Iteration:  2121charge 0 multiplicity 1
 C         1.438146        -0.236406        -0.209428
 C         0.067419         0.198620         0.108474
 C        -1.142173         0.370511         0.110017
 C        -2.597250         0.621669         0.178372
 O        -3.299752         0.044384         1.319456
 C        -3.213089        -0.136416        -0.996674
 C        -4.629217         0.397909        -1.443759
 C        -4.015181         0.268412        -2.867425
 O        -2.665800         0.000915        -2.367000
 H         2.176782         0.478944         0.003753
 H         1.661748        -0.957162         0.534997
 H         1.494782        -0.639751        -1.257044
 H        -2.846311         1.645859         0.061001
 H        -3.002211        -0.862307         1.414460
 H        -3.323883        -1.131814        -0.612903
 H        -5.479145        -0.242893        -1.160712
 H        -4.823381         1.473704        -1.280368
 H        -4.240953        -0.649520        -3.422233
 H        -4.161628         1.110279        -3.533685
