19
Iteration:  2415
 C         1.368694        -0.501019         0.237210
 C         0.114033         0.284880         0.022807
 C        -1.074520         0.523809        -0.057470
 C        -2.486677         0.769017        -0.074672
 O        -2.930114         0.399564         1.348217
 C        -3.148382        -0.282386        -1.104825
 C        -4.668501        -0.099261        -1.320225
 C        -4.305945         0.378238        -2.752841
 O        -2.881329        -0.001736        -2.562038
 H         2.239571        -0.123648        -0.361611
 H         1.575273        -0.546359         1.349143
 H         1.345358        -1.478662        -0.212043
 H        -2.630968         1.805757        -0.221523
 H        -3.851733         0.248623         1.322812
 H        -2.872224        -1.297057        -0.804868
 H        -5.253831        -1.012470        -1.101778
 H        -5.073422         0.717625        -0.691208
 H        -4.592839        -0.209789        -3.707810
 H        -4.565409         1.423215        -3.023439
