19
Iteration:   317
 C         1.345672         0.100546        -0.380812
 C        -0.001493        -0.054706         0.209883
 C        -1.182079         0.061661         0.551638
 C        -2.618515         0.159344         0.266599
 O        -3.243040        -0.875403         1.027248
 C        -3.071715        -0.084632        -1.203890
 C        -4.585636         0.125666        -1.640468
 C        -3.969336         1.002542        -2.673598
 O        -2.688965         0.971311        -2.125893
 H         2.185632         0.273164         0.275417
 H         1.518694        -0.755128        -1.091534
 H         1.231694         1.018834        -0.914750
 H        -2.980203         1.084795         0.788781
 H        -3.896367        -1.430455         0.446155
 H        -2.548004        -1.039241        -1.478131
 H        -5.167796        -0.689361        -2.160498
 H        -5.209880         0.474040        -0.816978
 H        -3.969686         0.482526        -3.655355
 H        -4.339012         2.074769        -2.811048
