19
Iteration:   120
 C         1.603644        -0.057002         0.468213
 C         0.193365         0.029258         0.225899
 C        -0.990548        -0.043724        -0.006485
 C        -2.431249         0.142388        -0.092057
 O        -3.105117        -0.901279         0.763745
 C        -3.168168        -0.139336        -1.419411
 C        -4.688612         0.143593        -1.361629
 C        -4.434347         1.380522        -2.262331
 O        -3.035453         0.870566        -2.522025
 H         2.015783        -0.585109        -0.503131
 H         2.084817         0.951120         0.575889
 H         1.771016        -0.600942         1.377297
 H        -2.677636         1.162381         0.256215
 H        -2.360566        -1.591362         0.973554
 H        -2.853856        -1.166977        -1.674850
 H        -5.358510        -0.624819        -1.801477
 H        -4.886802         0.398383        -0.315960
 H        -5.011047         1.461118        -3.158700
 H        -4.579718         2.368903        -1.714822
