19
Iteration:  3516
 C         1.345456        -0.307390        -0.333212
 C        -0.022450         0.071112        -0.206839
 C        -1.117334         0.532845         0.033748
 C        -2.588439         0.934793        -0.021690
 O        -3.143573         1.001109         1.323565
 C        -3.441479        -0.203927        -0.728787
 C        -4.620964         0.337927        -1.597875
 C        -3.887749        -0.375898        -2.787418
 O        -2.699354        -0.650652        -1.966231
 H         1.652315        -0.756197         0.559070
 H         1.518515        -0.932200        -1.235673
 H         2.058644         0.481024        -0.394063
 H        -2.662439         1.903727        -0.541050
 H        -2.481231         1.445371         1.925102
 H        -3.701795        -0.960803         0.026231
 H        -5.578326        -0.107743        -1.420365
 H        -4.575950         1.402111        -1.704658
 H        -4.384575        -1.399102        -3.074787
 H        -3.456748         0.201784        -3.603270
