19
Iteration:  4067
 C         1.425408        -0.311919        -0.185856
 C        -0.008386        -0.145796        -0.089489
 C        -1.156992         0.283449        -0.057091
 C        -2.511823         0.875582        -0.218440
 O        -2.923104         1.796210         0.892740
 C        -3.418743        -0.209628        -0.677808
 C        -4.702245         0.147291        -1.386591
 C        -3.943132        -0.289510        -2.669423
 O        -2.892756        -0.942218        -1.857748
 H         1.949527        -0.067630        -1.075309
 H         1.790860         0.149395         0.701430
 H         1.647986        -1.402069         0.070688
 H        -2.490746         1.574600        -1.047045
 H        -3.236202         1.244555         1.693519
 H        -3.669240        -0.955479         0.046496
 H        -5.618950        -0.367430        -1.043669
 H        -4.808432         1.239079        -1.462583
 H        -4.370816        -1.068705        -3.329660
 H        -3.438339         0.565081        -3.159200
