19
Iteration:  4362charge 0 multiplicity 1
 C         1.540357        -0.373534         0.299888
 C         0.153856         0.056927         0.129238
 C        -1.031216         0.345527        -0.077116
 C        -2.344372         0.797536        -0.396713
 O        -2.850647         1.755661         0.475567
 C        -3.305967        -0.364992        -0.777325
 C        -4.820351        -0.049339        -1.077459
 C        -4.477840        -0.542803        -2.442546
 O        -3.007146        -0.435580        -2.266731
 H         1.376979        -1.441647         0.280179
 H         2.219821        -0.143857        -0.562173
 H         2.074779         0.056824         1.258889
 H        -2.247029         1.111024        -1.446768
 H        -2.132077         1.941841         1.110030
 H        -3.045226        -1.294627        -0.302499
 H        -5.525160        -0.632189        -0.489723
 H        -4.960179         1.003804        -0.880616
 H        -4.794860        -1.544047        -2.566691
 H        -4.907798         0.177325        -3.124960
