19
Iteration:  2722charge 0 multiplicity 1
 C         1.393860        -0.310276         0.073275
 C         0.025746         0.026534        -0.125964
 C        -1.151200         0.326114        -0.132481
 C        -2.569768         0.637932        -0.054531
 O        -2.921568         0.749920         1.267543
 C        -3.312661        -0.311851        -0.905694
 C        -4.791902         0.071350        -1.365154
 C        -4.014931         0.382647        -2.775483
 O        -2.744324        -0.257978        -2.276323
 H         2.017109         0.415804        -0.562745
 H         1.696239        -0.009769         1.156146
 H         1.680978        -1.284200        -0.172491
 H        -2.751977         1.541698        -0.585873
 H        -3.849646         0.440497         1.465945
 H        -3.318581        -1.333853        -0.586942
 H        -5.473207        -0.784797        -1.343106
 H        -5.172577         0.798119        -0.655679
 H        -4.481758        -0.215834        -3.578354
 H        -3.720928         1.454598        -3.031526
