19
Iteration:  3223charge 0 multiplicity 1
 C         1.412313        -0.219186         0.435887
 C         0.053217         0.033059         0.071483
 C        -1.041618         0.383031        -0.271314
 C        -2.433067         0.727529        -0.329231
 O        -2.619699         0.963123         1.104400
 C        -3.218404        -0.359360        -0.942600
 C        -4.812535         0.018921        -1.253854
 C        -4.371768         0.062958        -2.710497
 O        -3.016194        -0.348335        -2.401022
 H         1.723070        -1.203767         0.521497
 H         1.975201         0.200656        -0.298947
 H         1.448137         0.287532         1.429711
 H        -2.569638         1.669644        -0.859653
 H        -3.555398         0.979673         1.281771
 H        -2.913143        -1.302172        -0.604289
 H        -5.448982        -0.853093        -1.105464
 H        -5.269806         0.874185        -0.718027
 H        -5.002119        -0.645696        -3.343913
 H        -4.345020         1.156575        -3.035190
