19
Iteration:  4834
 C         1.290946        -0.626202        -0.061722
 C        -0.016104         0.019745         0.077401
 C        -1.010726         0.662096        -0.155075
 C        -2.402319         1.060768        -0.463007
 O        -2.907265         1.791069         0.732457
 C        -3.228277        -0.209417        -0.666197
 C        -4.600611         0.132252        -1.257446
 C        -4.260400        -0.661284        -2.478758
 O        -2.914247        -0.910040        -1.892838
 H         1.347622        -1.179798        -1.085889
 H         2.030461         0.180131         0.151945
 H         1.344911        -1.429095         0.806277
 H        -2.342078         1.723958        -1.330040
 H        -3.253094         2.649735         0.542538
 H        -3.099316        -0.953710         0.186791
 H        -5.359345        -0.294899        -0.588465
 H        -4.899850         1.121457        -1.394303
 H        -4.802355        -1.585198        -2.693971
 H        -4.175236        -0.089847        -3.434228
