19
Iteration:  2400charge 0 multiplicity 1
 C         1.357349        -0.446154         0.193077
 C         0.109466         0.187608        -0.039844
 C        -1.057870         0.491727        -0.039339
 C        -2.535154         0.657752        -0.025041
 O        -2.878155         0.454459         1.276176
 C        -3.210720        -0.236923        -1.078711
 C        -4.721857        -0.088201        -1.372416
 C        -4.236941         0.354155        -2.752729
 O        -2.840951         0.049477        -2.422411
 H         2.161424         0.044541        -0.411357
 H         1.833816        -0.146943         1.240037
 H         1.174489        -1.562888         0.186802
 H        -2.876295         1.639862        -0.507406
 H        -3.855456         0.203390         1.307993
 H        -2.871538        -1.275621        -0.839174
 H        -5.232067        -1.021882        -1.548646
 H        -5.409399         0.518984        -0.789650
 H        -4.752781        -0.127699        -3.514482
 H        -4.192893         1.398131        -2.874872
