19
Iteration:  3029
 C         1.493184        -0.223577         0.064404
 C         0.044462        -0.044660         0.008771
 C        -1.084017         0.345367         0.063303
 C        -2.435028         0.759279        -0.143768
 O        -3.085446         0.950107         1.098764
 C        -3.192702        -0.308545        -1.002605
 C        -4.737136         0.016056        -1.245342
 C        -4.300879        -0.132476        -2.715237
 O        -2.793958        -0.052266        -2.381375
 H         2.103692         0.676369        -0.423291
 H         1.688923        -0.247367         1.247893
 H         1.799151        -1.236946        -0.266772
 H        -2.431914         1.740299        -0.565651
 H        -3.285020         0.060129         1.481261
 H        -2.855676        -1.317624        -0.527455
 H        -5.434965        -0.662726        -0.784207
 H        -5.045383         0.992478        -0.844187
 H        -4.416388        -1.096814        -3.146365
 H        -4.594971         0.569039        -3.479459
