19
Iteration:  1990
 C         1.626901        -0.348134         0.208551
 C         0.190105         0.104165         0.225071
 C        -1.049503         0.224836        -0.002488
 C        -2.492834         0.490560        -0.024960
 O        -3.210762         0.238531         1.233645
 C        -3.160607        -0.245513        -1.239637
 C        -4.685746        -0.047160        -1.361663
 C        -4.334734         0.513838        -2.769304
 O        -2.922153         0.342886        -2.522622
 H         1.881423        -0.751984        -0.730137
 H         2.229774         0.524029         0.434537
 H         1.937573        -0.910574         1.150066
 H        -2.615266         1.640273        -0.333728
 H        -3.076678         0.975371         1.796955
 H        -2.863592        -1.356797        -1.174209
 H        -5.108787        -1.051177        -1.397624
 H        -5.135053         0.480601        -0.519916
 H        -4.843323         0.007181        -3.674763
 H        -4.497255         1.592445        -2.830377
