19
Iteration:   171charge 0 multiplicity 1
 C         1.604667        -0.057814         0.376177
 C         0.152405        -0.040613         0.075630
 C        -1.058820         0.092519        -0.048646
 C        -2.499617         0.031295         0.006155
 O        -3.037029        -0.907287         1.003624
 C        -3.106335        -0.114771        -1.444039
 C        -4.767824         0.137135        -1.431893
 C        -4.354110         1.206727        -2.412891
 O        -2.921529         1.011493        -2.340172
 H         2.154497         0.404982        -0.381663
 H         1.659828         0.479802         1.323364
 H         2.073565        -1.159732         0.546253
 H        -2.832976         1.096682         0.222655
 H        -3.782430        -1.247919         0.533199
 H        -2.909272        -1.119162        -1.846639
 H        -5.397974        -0.548625        -1.941390
 H        -5.033067         0.774620        -0.495894
 H        -4.717113         1.131594        -3.492279
 H        -4.605641         2.216608        -2.003634
