19
Iteration:  1423charge 0 multiplicity 1
 C         1.415895        -0.203376         0.261762
 C         0.074535         0.255786        -0.025610
 C        -1.103104         0.451602        -0.185581
 C        -2.605482         0.403638         0.062740
 O        -3.080302        -0.220118         1.281481
 C        -3.192181        -0.317961        -1.189224
 C        -4.704327         0.161351        -1.444402
 C        -4.099763         0.837340        -2.618386
 O        -2.788566         0.166358        -2.481466
 H         1.644223        -0.083991         1.331281
 H         1.487939        -1.380979         0.151525
 H         2.199639         0.340714        -0.162880
 H        -3.077602         1.386726        -0.052996
 H        -2.623793        -1.024234         1.412300
 H        -3.172376        -1.407846        -1.011842
 H        -5.359617        -0.642004        -1.818582
 H        -5.094893         0.728716        -0.553051
 H        -4.646386         0.778081        -3.588087
 H        -3.969383         1.862296        -2.322830
