19
Iteration:  4847
 C         1.270660        -0.553255        -0.036674
 C        -0.071723        -0.029031         0.119442
 C        -1.030090         0.627643        -0.050794
 C        -2.323818         1.041814        -0.419057
 O        -2.804797         1.838492         0.680405
 C        -3.244147        -0.218691        -0.696093
 C        -4.697447         0.089274        -1.169866
 C        -4.265548        -0.660142        -2.518985
 O        -2.907071        -0.912953        -1.963752
 H         1.295712        -0.726994        -1.177418
 H         2.172719         0.143168         0.154344
 H         1.670051        -1.539659         0.460425
 H        -2.441165         1.547930        -1.386238
 H        -3.453895         2.471708         0.212975
 H        -3.185409        -0.777919         0.219946
 H        -5.656139        -0.249098        -0.688668
 H        -4.688934         1.139317        -1.372896
 H        -4.804546        -1.645321        -2.668346
 H        -4.252921         0.030479        -3.415384
