19
Iteration:  3255charge 0 multiplicity 1
 C         1.612554        -0.276967         0.326650
 C         0.208668         0.001438        -0.108104
 C        -0.987575         0.304605        -0.246909
 C        -2.422101         0.767728        -0.210024
 O        -3.008354         0.989517         1.110640
 C        -3.303978        -0.262628        -0.892158
 C        -4.851868         0.057497        -1.245071
 C        -4.295812        -0.017607        -2.685220
 O        -2.934075        -0.359743        -2.337373
 H         2.072194        -1.152097        -0.030906
 H         2.205643         0.594741         0.143665
 H         1.531672        -0.279235         1.514212
 H        -2.501512         1.675313        -0.755365
 H        -3.870685         1.437067         0.985797
 H        -2.930115        -1.162664        -0.494932
 H        -5.515308        -0.760913        -1.004382
 H        -5.295376         1.017847        -0.954708
 H        -4.852489        -0.590499        -3.400606
 H        -4.365777         1.014602        -3.121179
