19
Iteration:  2183
 C         1.356170        -0.189622        -0.211186
 C        -0.031263         0.119595        -0.051004
 C        -1.261820         0.331873        -0.088406
 C        -2.633270         0.551566         0.205141
 O        -3.044970        -0.019284         1.522764
 C        -3.423863        -0.146540        -0.896690
 C        -4.656485         0.447037        -1.656852
 C        -3.812269         0.293946        -2.943889
 O        -2.626196         0.015454        -2.185367
 H         1.928769        -0.025475         0.774080
 H         1.363815        -1.221629        -0.566388
 H         1.955499         0.350471        -0.916444
 H        -2.929347         1.659094         0.170696
 H        -3.157990         0.756760         2.077222
 H        -3.570534        -1.244202        -0.752787
 H        -5.508278        -0.251675        -1.455441
 H        -4.992074         1.439257        -1.311143
 H        -4.084664        -0.663988        -3.445144
 H        -3.795997         1.117470        -3.711987
