19
Iteration:  2974
 C         1.437658        -0.482706        -0.077178
 C         0.140247         0.245481         0.030228
 C        -1.018821         0.658097         0.192025
 C        -2.522960         0.816522        -0.041060
 O        -3.093329         0.607573         1.266779
 C        -3.235061        -0.166289        -0.932903
 C        -4.713841         0.161038        -1.452652
 C        -4.156566        -0.230677        -2.839005
 O        -2.882181        -0.200038        -2.362553
 H         1.760465        -0.638649        -1.212123
 H         2.308951         0.194454         0.332887
 H         1.445104        -1.392576         0.553787
 H        -2.718721         1.810336        -0.331767
 H        -3.225699         1.426526         1.719007
 H        -3.149048        -1.149131        -0.352933
 H        -5.339591        -0.528870        -0.939516
 H        -4.940254         1.195599        -1.452150
 H        -4.407862        -1.220037        -3.196878
 H        -4.381677         0.531268        -3.606009
