19
Iteration:  3106
 C         1.585120        -0.212694         0.318190
 C         0.138723         0.087440         0.328357
 C        -0.990304         0.372799        -0.067498
 C        -2.406481         0.740170        -0.305452
 O        -2.958777         0.927995         0.934821
 C        -3.227465        -0.416771        -1.056667
 C        -4.729398        -0.083472        -1.173531
 C        -4.445081         0.066934        -2.645455
 O        -3.077582        -0.213105        -2.552070
 H         2.100984         0.335481         1.239063
 H         1.673153        -1.355658         0.564978
 H         2.090028         0.187751        -0.557621
 H        -2.526791         1.671061        -0.893652
 H        -2.300266         0.718225         1.573048
 H        -2.836022        -1.370241        -0.552523
 H        -5.538673        -0.750337        -0.901252
 H        -4.821184         0.851636        -0.561336
 H        -4.947622        -0.654420        -3.267431
 H        -4.509967         1.043842        -3.029775
