19
Iteration:  2096charge 0 multiplicity 1
 C         1.367797        -0.150599         0.123736
 C        -0.077856        -0.065171        -0.168063
 C        -1.257687        -0.082034        -0.222828
 C        -2.687348        -0.050642         0.246245
 O        -2.827718         0.454935         1.603672
 C        -3.353904         0.860301        -0.909259
 C        -4.705080         0.679606        -1.552910
 O        -4.164414         0.696670        -2.870028
 C        -2.811867         0.510664        -2.304361
 H         1.490538        -0.261140         1.135054
 H         1.866062        -1.095609        -0.279840
 H         1.700719         0.835503        -0.282045
 H        -3.076056        -1.046153         0.210568
 H        -1.967151         0.190650         1.927703
 H        -3.181842         1.931156        -0.640848
 H        -5.370906        -0.328076        -1.330390
 H        -5.427049         1.509885        -1.400216
 H        -2.476170        -0.563430        -2.376568
 H        -2.080223         1.149355        -2.781200
