19
Iteration:  3622charge 0 multiplicity 1
 C         1.474110        -0.154118         0.637216
 C         0.022451        -0.207721         0.268157
 C        -1.050291        -0.067278        -0.297333
 C        -2.510943        -0.243013        -0.374879
 O        -3.039544        -0.182807         0.972621
 C        -2.951525         1.075168        -1.171499
 C        -4.515262         1.189374        -1.046267
 O        -4.609080         0.554703        -2.357515
 C        -3.187235         0.891100        -2.660378
 H         1.689792         0.921552         1.173587
 H         1.679009        -0.792065         1.516878
 H         1.999051        -0.208399        -0.240466
 H        -2.902324        -1.082249        -0.920042
 H        -2.377949         0.106329         1.610386
 H        -2.493123         1.869310        -0.672431
 H        -5.048613         0.454710        -0.415210
 H        -4.809619         2.237594        -1.151775
 H        -2.615311         0.119959        -3.207741
 H        -2.841503         1.760887        -3.326911
