19
Iteration:  3610charge 0 multiplicity 1
 C         1.446993        -0.194139         0.708381
 C         0.100820        -0.112328         0.234468
 C        -1.037684        -0.058695        -0.276170
 C        -2.514632        -0.140216        -0.414429
 O        -3.042900        -0.250784         0.923406
 C        -2.996536         1.105029        -1.110848
 C        -4.488426         1.210803        -1.062354
 O        -4.611907         0.565485        -2.373986
 C        -3.214222         0.794384        -2.657326
 H         1.760862         0.783020         1.263009
 H         1.663467        -1.104260         1.262732
 H         2.132367        -0.317152        -0.054881
 H        -2.804901        -1.025620        -0.872492
 H        -2.333202         0.179294         1.420393
 H        -2.343943         1.931898        -0.927568
 H        -4.971002         0.663784        -0.184477
 H        -4.963043         2.173255        -0.964895
 H        -2.724143        -0.141688        -3.001338
 H        -3.217738         1.707260        -3.326422
