19
Iteration:  3051charge 0 multiplicity 1
 C         1.511284        -0.266388         0.251164
 C         0.101354        -0.028207         0.321633
 C        -1.060676        -0.045447         0.031278
 C        -2.472810        -0.092220        -0.268039
 O        -3.175100        -0.096501         0.993444
 C        -3.131831         1.129676        -0.938157
 C        -4.560521         0.714768        -1.105534
 O        -4.505068         0.694266        -2.613526
 C        -3.063236         0.974756        -2.534664
 H         1.996386         0.450031        -0.485951
 H         2.185948        -0.128720         1.167656
 H         1.557601        -1.448556         0.068152
 H        -2.536096        -0.956345        -1.074367
 H        -2.458093        -0.306085         1.659568
 H        -3.010861         2.081551        -0.536030
 H        -5.002084        -0.225748        -0.704653
 H        -5.265891         1.538962        -0.853569
 H        -2.503688         0.104130        -2.969593
 H        -2.686675         1.843884        -2.969900
