19
Iteration:  1996
 C         1.140426        -0.121922        -0.695422
 C        -0.105273        -0.040821        -0.020093
 C        -1.165177        -0.057983         0.705749
 C        -2.563866        -0.019622         0.328944
 O        -3.593525         0.341484         1.282183
 C        -2.910723         0.864884        -0.878766
 C        -4.364424         0.772544        -1.333028
 O        -4.078604         0.562261        -2.719099
 C        -2.596103         0.467960        -2.366385
 H         1.806605        -0.849844        -0.164614
 H         0.997062        -0.327007        -1.866069
 H         1.586359         0.923924        -0.575170
 H        -2.905378        -0.950563         0.091704
 H        -3.658959         1.347051         1.348888
 H        -2.472115         1.903684        -0.778637
 H        -4.916438        -0.016153        -0.672689
 H        -5.169491         1.509089        -1.195613
 H        -2.273020        -0.532417        -2.676474
 H        -2.171892         1.307397        -2.918664
