19
Iteration:  2552
 C         1.438351        -0.119830        -0.411750
 C         0.018785        -0.207859        -0.024985
 C        -1.151973        -0.074150         0.377863
 C        -2.605947        -0.119215         0.176998
 O        -3.535277         0.031731         1.258334
 C        -3.148134         1.016291        -0.769669
 C        -4.510772         0.474179        -1.394975
 O        -4.057042         0.663574        -2.780127
 C        -2.757252         1.218376        -2.248549
 H         1.843707        -0.820204        -1.267815
 H         1.432571         0.866652        -0.967895
 H         2.165328         0.053596         0.428192
 H        -2.611050        -1.182636        -0.331542
 H        -3.296886        -0.606322         1.959486
 H        -3.351495         1.836599        -0.021290
 H        -4.759931        -0.549178        -1.243903
 H        -5.409807         1.060243        -1.112816
 H        -1.858706         0.888441        -2.453049
 H        -2.788956         2.230671        -2.619679
