19
Iteration:  3429
 C         1.537008         0.066592         0.413404
 C         0.037257        -0.174853         0.064999
 C        -1.172748        -0.403415        -0.173250
 C        -2.672077        -0.208829        -0.140070
 O        -2.937744        -0.032498         1.226746
 C        -3.069141         0.992130        -0.988794
 C        -4.650159         1.024904        -1.244793
 O        -4.400833         0.947484        -2.682964
 C        -3.014972         0.642507        -2.471141
 H         1.789879        -0.314252         1.293784
 H         2.034477        -0.516778        -0.337680
 H         1.568312         1.188540         0.430252
 H        -3.240777        -1.134515        -0.470333
 H        -2.940653        -0.936097         1.608772
 H        -2.688816         1.999346        -0.548129
 H        -5.273496         0.162006        -0.941020
 H        -5.259964         1.938776        -1.187053
 H        -2.770353        -0.475441        -2.507374
 H        -2.451062         1.343405        -3.097994
