19
Iteration:  4600
 C         1.337171         0.109231        -0.315340
 C        -0.035818        -0.133698        -0.121297
 C        -1.229174        -0.213605         0.173155
 C        -2.682301        -0.273155        -0.043257
 O        -3.407117        -0.602436         1.198878
 C        -3.313733         0.938297        -0.623252
 C        -4.500207         0.586660        -1.458938
 O        -3.933447         1.043971        -2.682528
 C        -2.676376         1.408479        -2.002310
 H         2.038630        -0.800249        -0.387215
 H         1.473365         0.576458        -1.358116
 H         1.709721         0.720509         0.458517
 H        -2.876505        -1.219674        -0.773284
 H        -2.791405        -0.509956         1.974666
 H        -3.257460         1.928493         0.037545
 H        -4.781088        -0.347811        -1.433723
 H        -5.369135         1.225440        -1.190808
 H        -1.775916         0.980408        -2.383610
 H        -2.431875         2.459115        -2.033740
