19
Iteration:  4145
 C         1.541095         0.026376         0.520809
 C         0.133614        -0.160290         0.020233
 C        -1.107567        -0.219057        -0.206969
 C        -2.496271        -0.333309        -0.357785
 O        -3.260012        -0.430793         0.898258
 C        -3.015132         0.968886        -0.995170
 C        -4.513349         1.129848        -1.001389
 O        -4.514498         0.851833        -2.454291
 C        -3.077177         1.032589        -2.455582
 H         1.474324         0.137335         1.612611
 H         2.155214        -0.863804         0.275390
 H         1.914869         0.978764         0.065148
 H        -2.895054        -1.155494        -1.095383
 H        -2.558608        -0.875841         1.404998
 H        -2.568098         1.789480        -0.297681
 H        -5.079038         0.622876        -0.287596
 H        -4.831153         2.166599        -0.797386
 H        -2.589988         0.180113        -3.002143
 H        -2.936301         2.085933        -2.810504
