19
Iteration:   737charge 0 multiplicity 1
 C         1.324238         0.265007        -0.140581
 C        -0.079943        -0.022423         0.012731
 C        -1.259147        -0.303297         0.057366
 C        -2.717086        -0.276202         0.050354
 O        -3.290255         0.050431         1.369713
 C        -3.025516         0.866414        -0.875460
 C        -4.487280         1.097210        -1.318881
 O        -4.145846         0.573334        -2.680007
 C        -2.777496         0.521956        -2.406043
 H         1.945064        -0.017901         0.796030
 H         1.778264        -0.241248        -0.980220
 H         1.555058         1.356736        -0.217257
 H        -3.128666        -1.338489        -0.181064
 H        -2.429820         0.250324         1.839943
 H        -2.595383         1.748027        -0.418540
 H        -5.430104         0.712177        -0.864001
 H        -4.600478         2.218779        -1.444889
 H        -2.391977        -0.511035        -2.624524
 H        -2.179059         1.202344        -3.014935
