19
Iteration:  2760
 C         1.587007        -0.148462         0.122110
 C         0.151151         0.118175         0.248026
 C        -1.072590        -0.007835         0.107945
 C        -2.550940        -0.141289        -0.142991
 O        -3.195846        -0.504115         1.129840
 C        -3.124076         1.052253        -0.957924
 C        -4.712634         0.876318        -1.223903
 O        -4.415467         1.111441        -2.724106
 C        -3.029926         0.690909        -2.441487
 H         2.079394        -0.466796         1.125846
 H         1.539212        -1.046606        -0.472598
 H         2.163186         0.580526        -0.276731
 H        -2.608531        -1.154444        -0.669285
 H        -2.688864        -0.060024         1.854818
 H        -2.784578         2.080597        -0.547527
 H        -5.073848        -0.155549        -1.010307
 H        -5.524960         1.639536        -1.009625
 H        -2.702256        -0.430444        -2.419768
 H        -2.314633         1.181452        -3.136273
