19
Iteration:  4849charge 0 multiplicity 1
 C         1.504592        -0.169346         0.570565
 C         0.147712        -0.088353         0.098297
 C        -1.050200         0.050065        -0.105712
 C        -2.428236        -0.280694        -0.387967
 O        -3.110610        -0.754324         0.775892
 C        -3.036078         1.079172        -0.928694
 C        -4.544863         1.156644        -1.028742
 O        -4.605500         0.863638        -2.442199
 C        -3.200847         1.110315        -2.540648
 H         1.605056         0.689864         1.287540
 H         1.676821        -1.134576         1.131676
 H         2.250910        -0.117978        -0.204560
 H        -2.448814        -1.105355        -1.026391
 H        -2.692273        -0.292198         1.526021
 H        -2.509755         1.968292        -0.630832
 H        -5.219302         0.525874        -0.308996
 H        -4.985120         2.111288        -0.716275
 H        -2.560932         0.371899        -3.040197
 H        -3.085964         2.078513        -3.022705
