19
Iteration:  2454charge 0 multiplicity 1
 C         1.489853         0.094701         0.121583
 C         0.069459         0.064996        -0.230760
 C        -1.117244        -0.136483         0.006586
 C        -2.668030        -0.267406         0.111889
 O        -3.140082        -0.177101         1.411957
 C        -3.236749         0.799030        -0.813056
 C        -4.730392         0.906916        -1.481278
 O        -4.139673         1.127158        -2.798705
 C        -2.990819         0.501741        -2.321898
 H         2.268390         0.160688        -0.734396
 H         1.690063         1.071206         0.435294
 H         1.746492        -0.713510         0.825348
 H        -2.882285        -1.175968        -0.332708
 H        -2.510982        -0.575080         2.075956
 H        -2.783719         1.796419        -0.594799
 H        -5.281279         0.023729        -1.159901
 H        -5.256733         1.838241        -1.202698
 H        -2.987815        -0.754537        -2.509754
 H        -2.034229         0.735645        -2.860031
