19
Iteration:  4615charge 0 multiplicity 1
 C         1.364679         0.138413        -0.279955
 C        -0.062756        -0.169292        -0.106508
 C        -1.281901        -0.146881         0.092791
 C        -2.676618        -0.395913        -0.011431
 O        -3.364058        -0.536179         1.215187
 C        -3.180780         0.875553        -0.708482
 C        -4.605943         0.651081        -1.399138
 O        -3.937844         1.121081        -2.694106
 C        -2.678291         1.386653        -2.017708
 H         1.960771        -0.743638        -0.086288
 H         1.585714         0.562615        -1.254291
 H         1.743119         0.916254         0.483943
 H        -2.839142        -1.331529        -0.712342
 H        -2.726507        -0.804184         1.883718
 H        -3.430881         1.482340         0.195040
 H        -4.838960        -0.592367        -1.542358
 H        -5.539766         1.135675        -1.156527
 H        -1.915824         0.676338        -2.412809
 H        -2.421600         2.419723        -2.095942
