19
Iteration:  2611
 C         1.345704        -0.242937        -0.249304
 C        -0.048273         0.092174        -0.113939
 C        -1.283352        -0.020555        -0.093268
 C        -2.749224        -0.040879         0.079629
 O        -3.037234        -0.165679         1.548866
 C        -3.500126         1.063682        -0.689726
 C        -4.716368         0.713582        -1.663410
 O        -3.789097         0.477562        -2.763780
 C        -2.749027         1.174453        -2.048024
 H         1.527651        -1.317965        -0.093050
 H         1.858842         0.195114        -1.105289
 H         1.922321         0.216096         0.733099
 H        -3.086488        -1.137618        -0.356441
 H        -2.380484        -0.872305         1.835111
 H        -3.661814         1.909306        -0.047463
 H        -5.325646        -0.182865        -1.368851
 H        -5.336282         1.617150        -1.882200
 H        -1.709265         0.699647        -2.018122
 H        -2.880743         2.163070        -2.443136
