19
Iteration:  3077
 C         1.592628        -0.321785         0.268700
 C         0.131287        -0.083214         0.070187
 C        -1.069774         0.014051        -0.132152
 C        -2.558138        -0.069164        -0.086821
 O        -3.183852        -0.065400         1.204626
 C        -3.243769         1.093257        -0.867011
 C        -4.726318         0.754053        -1.251034
 O        -4.363599         0.594787        -2.711922
 C        -2.952049         1.068122        -2.442377
 H         1.973413         0.236470        -0.496471
 H         2.111186         0.176921         1.071803
 H         1.894822        -1.351313         0.298815
 H        -2.693252        -1.016256        -0.732045
 H        -2.672245        -0.712960         1.753941
 H        -2.996395         2.143272        -0.451158
 H        -5.073109        -0.231434        -0.943606
 H        -5.563570         1.400373        -1.042884
 H        -2.255475         0.387776        -2.856042
 H        -2.771701         2.190831        -2.729672
