19
Iteration:  2362charge 0 multiplicity 1
 C         1.407594         0.250608         0.483967
 C         0.140269        -0.296385         0.106012
 C        -1.067385        -0.431007         0.005009
 C        -2.538553        -0.405284        -0.155403
 O        -3.167487         0.197572         1.039450
 C        -2.851899         0.780594        -1.195700
 C        -4.411243         0.934871        -1.042518
 O        -4.608890         0.988862        -2.535368
 C        -3.202786         0.629364        -2.686950
 H         1.614759         1.088530        -0.217665
 H         1.406109         0.842943         1.523218
 H         2.258450        -0.443546         0.401252
 H        -3.022841        -1.324276        -0.323254
 H        -2.651893        -0.185074         1.746707
 H        -2.275515         1.664285        -0.895978
 H        -4.921925         0.118249        -0.557637
 H        -4.774256         1.910977        -0.787155
 H        -3.021902        -0.357734        -3.301400
 H        -2.623664         1.307199        -3.358891
