19
Iteration:  1670
 C         1.591886        -0.163386         0.845217
 C         0.237760        -0.166910         0.286744
 C        -0.914412        -0.029605        -0.189160
 C        -2.349066        -0.081160        -0.309363
 O        -3.079296         0.058540         0.962952
 C        -2.990889         0.965741        -1.347065
 C        -4.503278         1.126231        -1.075031
 O        -4.837290         0.589088        -2.476266
 C        -3.407880         0.495968        -2.732954
 H         2.338536        -0.313985         0.154880
 H         1.834759         0.936768         1.132012
 H         1.676777        -0.661126         1.811629
 H        -2.654602        -0.984999        -0.715774
 H        -2.509404         0.759803         1.407541
 H        -2.515910         1.954306        -1.228337
 H        -4.854162         0.509079        -0.243713
 H        -5.086610         2.082189        -0.982943
 H        -3.075705        -0.517683        -2.874357
 H        -3.182495         1.257843        -3.526309
