19
Iteration:  4408
 C         1.556975        -0.004271         0.246733
 C         0.072674        -0.129625        -0.049159
 C        -1.158955        -0.263074        -0.096677
 C        -2.555083        -0.304735        -0.168795
 O        -3.097429        -0.461249         1.128176
 C        -3.263277         0.971630        -0.763373
 C        -4.616589         0.687167        -1.296020
 O        -4.340267         1.087882        -2.677052
 C        -2.945526         1.356336        -2.269589
 H         2.157486         0.370693        -0.583473
 H         1.671422         0.817587         0.951390
 H         1.964729        -1.032179         0.528125
 H        -2.886605        -1.213260        -0.903072
 H        -3.108940        -1.396123         1.436901
 H        -3.135353         1.806056        -0.101887
 H        -5.012845        -0.359007        -1.195727
 H        -5.369028         1.514202        -0.876625
 H        -2.391223         0.468543        -2.837553
 H        -2.681385         2.394345        -2.405281
