19
Iteration:  4355charge 0 multiplicity 1
 C         1.625092        -0.022765         0.449525
 C         0.180687        -0.034250         0.123498
 C        -1.029590        -0.156414        -0.132125
 C        -2.497635        -0.371855        -0.291247
 O        -3.106993        -0.605956         1.041557
 C        -3.181638         0.905263        -0.917391
 C        -4.752911         0.819827        -1.231737
 O        -4.511835         1.384236        -2.561731
 C        -3.087277         1.004441        -2.455672
 H         2.196495         0.588896        -0.211502
 H         1.868328         0.158414         1.494986
 H         2.107307        -1.094978         0.199560
 H        -2.650027        -1.221292        -0.837563
 H        -2.479404        -0.268110         1.730747
 H        -2.737803         1.877873        -0.524387
 H        -5.132021        -0.311760        -1.183377
 H        -5.593772         1.488980        -0.725939
 H        -2.991272        -0.029275        -2.830975
 H        -2.488519         1.790930        -2.860005
