19
Iteration:  1925charge 0 multiplicity 1
 C         1.285685        -0.012049        -0.545270
 C        -0.128763        -0.051387        -0.127255
 C        -1.309291        -0.125475         0.261750
 C        -2.809236        -0.027166         0.299492
 O        -3.272367         0.275256         1.658827
 C        -3.152796         1.023931        -0.832521
 C        -4.529059         1.093256        -1.683354
 O        -3.948874         0.344141        -2.793289
 C        -2.610839         0.377310        -2.169029
 H         1.715076        -1.093117        -0.365460
 H         1.461275         0.248063        -1.542182
 H         1.863589         0.635619         0.133225
 H        -3.277540        -0.956288         0.145351
 H        -2.461509         0.102352         2.229523
 H        -2.750103         1.969740        -0.514831
 H        -5.446421         0.488458        -1.272489
 H        -5.023031         2.072650        -1.813330
 H        -2.238935        -0.693492        -2.109103
 H        -1.964697         1.128882        -2.697836
