19
Iteration:  2059charge 0 multiplicity 1
 C         1.394023        -0.174335        -0.303408
 C         0.013619        -0.067355        -0.008264
 C        -1.231783        -0.068495         0.177911
 C        -2.705955        -0.018966         0.270973
 O        -3.145511         0.389775         1.586359
 C        -3.276587         0.924561        -0.916845
 C        -4.661444         0.662671        -1.553093
 O        -4.097847         0.690816        -2.887557
 C        -2.767923         0.461547        -2.291519
 H         2.026605        -0.365835         0.645632
 H         1.679036        -0.720669        -1.128611
 H         1.824845         0.793019        -0.508940
 H        -3.077741        -1.150762         0.117116
 H        -2.482970         0.930143         2.078652
 H        -3.186049         2.000593        -0.651855
 H        -5.144719        -0.268998        -1.214683
 H        -5.224289         1.586302        -1.534023
 H        -2.469580        -0.635682        -2.247590
 H        -1.933801         1.072673        -2.765077
