19
Iteration:  4687
 C         1.388660         0.172850         0.072068
 C        -0.005584        -0.114150        -0.042873
 C        -1.222009        -0.201533        -0.127966
 C        -2.661955        -0.413255        -0.096283
 O        -3.050037        -0.514068         1.325530
 C        -3.263139         0.778611        -0.818013
 C        -4.625190         0.690939        -1.386754
 O        -4.164722         1.477396        -2.591347
 C        -2.778536         1.000858        -2.309324
 H         1.787719        -0.325836         1.021442
 H         2.086376         0.012542        -0.816984
 H         1.429407         1.173890         0.356054
 H        -2.939236        -1.255524        -0.619295
 H        -3.457216        -1.407134         1.414686
 H        -2.975049         1.728379        -0.302323
 H        -5.292669        -0.402723        -1.560782
 H        -5.373666         1.361561        -0.823630
 H        -2.655492         0.114298        -2.984327
 H        -1.866668         1.782709        -2.444145
