19
Iteration:  1534
 C         1.426151         0.285141        -0.085749
 C        -0.019964        -0.028358         0.018286
 C        -1.212539        -0.427325         0.130542
 C        -2.711898        -0.371008         0.035027
 O        -3.318300        -0.166422         1.355102
 C        -3.031068         0.831031        -0.922696
 C        -4.421829         1.311279        -1.304396
 O        -4.230986         0.779262        -2.714615
 C        -2.851096         0.500231        -2.440699
 H         1.765637         0.659408        -1.026741
 H         1.460128         1.177263         0.594196
 H         1.942616        -0.534212         0.404067
 H        -3.109507        -1.300173        -0.443074
 H        -2.860120         0.574010         1.734451
 H        -2.533471         1.719218        -0.552567
 H        -5.279412         0.816917        -0.835500
 H        -4.744922         2.372793        -1.129489
 H        -2.605503        -0.531282        -2.665165
 H        -2.098977         1.167274        -3.014026
