19
Iteration:  2695charge 0 multiplicity 1
 C         1.497785        -0.101056         0.060538
 C         0.056152        -0.224386        -0.116188
 C        -1.150398        -0.234325         0.010490
 C        -2.566930        -0.129654        -0.005321
 O        -3.241572        -0.099688         1.260513
 C        -3.186967         0.965382        -0.838922
 C        -4.629386         0.551866        -1.323704
 O        -4.196547         0.739653        -2.751555
 C        -2.916218         1.283561        -2.246582
 H         1.827563        -0.888889         0.835242
 H         2.007759        -0.440448        -0.833516
 H         1.842559         0.859786         0.246595
 H        -3.012804        -0.980458        -0.475228
 H        -3.166126         0.756789         1.672089
 H        -3.158786         1.921052        -0.242875
 H        -4.930893        -0.425598        -0.960003
 H        -5.372515         1.361389        -1.157342
 H        -2.050569         0.967412        -2.829635
 H        -2.935851         2.435715        -2.412100
