19
Iteration:   918charge 0 multiplicity 1
 C         1.281114        -0.175832        -0.225817
 C        -0.149658        -0.249741        -0.280243
 C        -1.364825        -0.315115        -0.014378
 C        -2.786196        -0.101384         0.225986
 O        -2.841072         0.489770         1.625594
 C        -3.515903         0.777040        -0.781225
 C        -4.366590        -0.029089        -1.740807
 O        -3.722293         0.746126        -2.891032
 C        -2.992930         1.594363        -1.904787
 H         1.688977         0.379394         0.614525
 H         1.759534        -1.213003        -0.256017
 H         1.646268         0.296414        -1.160689
 H        -3.389017        -1.054910         0.230447
 H        -3.737914         0.338020         1.942776
 H        -4.207231         1.444442        -0.223314
 H        -4.177638        -1.146785        -1.736012
 H        -5.393057         0.199394        -1.834152
 H        -1.929890         1.500733        -2.095990
 H        -3.190547         2.646089        -2.102415
