19
Iteration:  1089
 C         0.900860        -0.815570        -0.969001
 C        -0.294104        -0.357764        -0.249689
 C        -1.378606        -0.012035         0.173386
 C        -2.828632         0.030313         0.438261
 O        -3.108438         1.147249         1.426877
 C        -3.772307         0.249398        -0.698464
 C        -3.208072        -0.296474        -2.049332
 O        -3.246112         1.095740        -2.635844
 C        -3.566671         1.665598        -1.317336
 H         1.820789        -0.202854        -1.134708
 H         1.270474        -1.803966        -0.624388
 H         0.688216        -0.887957        -2.028420
 H        -3.092161        -0.940072         0.949367
 H        -3.974565         1.034886         1.927170
 H        -4.751569        -0.146402        -0.347478
 H        -2.286573        -0.770511        -1.937680
 H        -3.872826        -0.954326        -2.580189
 H        -2.630023         2.121280        -0.989288
 H        -4.407522         2.308050        -1.336640
