19
Iteration:   954
 C         1.195932        -0.201373        -0.138158
 C        -0.258070        -0.193537        -0.366239
 C        -1.461326        -0.371328        -0.217505
 C        -2.769862        -0.094068         0.262515
 O        -2.580718         0.689187         1.559468
 C        -3.748670         0.652729        -0.701886
 C        -4.371467        -0.096439        -1.967072
 O        -3.496981         0.747546        -2.851690
 C        -3.077980         1.608053        -1.686743
 H         1.521573         0.421109         0.640258
 H         1.369188        -1.326937         0.058273
 H         1.642232         0.093309        -1.109350
 H        -3.286590        -1.112210         0.375342
 H        -3.221228         0.361508         2.223769
 H        -4.448447         1.064466         0.004422
 H        -4.191189        -1.176375        -2.009960
 H        -5.412684         0.065808        -2.014207
 H        -2.005484         1.572996        -1.492497
 H        -3.499600         2.576156        -1.753788
