19
Iteration:   651
 C         1.390545         0.175413         0.603893
 C         0.069571        -0.236024         0.242329
 C        -1.085760        -0.235416        -0.227853
 C        -2.483067        -0.119636        -0.262171
 O        -2.991171         0.114417         1.061234
 C        -2.971132         1.031844        -1.223155
 C        -4.480283         1.191771        -1.205271
 O        -4.677347         0.359637        -2.322788
 C        -3.122190         0.497917        -2.692573
 H         1.995330        -0.634513         1.266726
 H         2.004920         0.245030        -0.253353
 H         1.244628         1.229411         0.924203
 H        -2.840365        -1.116756        -0.676165
 H        -2.297508         0.121633         1.722183
 H        -2.342106         1.938685        -0.941092
 H        -5.155342         1.046208        -0.362072
 H        -4.677912         2.234473        -1.460528
 H        -2.645147        -0.466102        -2.911580
 H        -3.124804         1.284797        -3.472123
