19
Iteration:  3362
 C         1.373783         0.041910        -0.127804
 C        -0.098613        -0.107471        -0.119072
 C        -1.211403        -0.440999         0.194710
 C        -2.637106        -0.255460         0.177750
 O        -3.213851        -0.013716         1.446279
 C        -3.116572         0.801954        -0.857333
 C        -4.638133         0.759039        -1.469525
 O        -4.114235         1.105238        -2.824167
 C        -2.763135         0.816745        -2.338257
 H         1.901821        -0.712563         0.287075
 H         1.736019        -0.012544        -1.186509
 H         1.634894         1.092858         0.348967
 H        -3.168441        -1.344155        -0.110978
 H        -2.765321         0.651005         2.037018
 H        -2.781401         1.857385        -0.493274
 H        -5.076978        -0.250840        -1.340721
 H        -5.270033         1.624733        -1.161201
 H        -2.466741        -0.255477        -2.750831
 H        -2.113885         1.655054        -2.631036
