19
Iteration:  4044charge 0 multiplicity 1
 C         1.548723        -0.378344         0.053693
 C         0.151185         0.026629        -0.051255
 C        -1.080936        -0.041502         0.024951
 C        -2.552755        -0.093546        -0.072460
 O        -3.250213        -0.276173         1.165436
 C        -3.361069         1.136372        -0.721934
 C        -4.681460         0.661355        -1.381526
 O        -4.165866         0.734646        -2.726929
 C        -2.973661         1.271827        -2.186573
 H         1.506177        -1.243816         0.832069
 H         1.885154        -0.471831        -1.027691
 H         2.062956         0.325669         0.637032
 H        -2.857126        -0.791939        -0.769783
 H        -2.750634        -1.039830         1.520878
 H        -3.283403         2.037341        -0.129967
 H        -4.922078        -0.371493        -1.168701
 H        -5.554556         1.370578        -1.316731
 H        -2.087691         0.717089        -2.604526
 H        -2.654743         2.298559        -2.495625
