19
Iteration:  2186
 C         1.619032        -0.230380         0.465972
 C         0.193010        -0.311811         0.327844
 C        -0.954937        -0.027142         0.075558
 C        -2.479023        -0.056815        -0.173964
 O        -3.037925         0.415303         1.064796
 C        -3.133361         0.873025        -1.170813
 C        -4.613128         0.690211        -1.158993
 O        -4.679564         0.671973        -2.696423
 C        -3.212120         0.788160        -2.682583
 H         1.848529         0.409186         1.256815
 H         2.133028        -1.200657         0.763689
 H         2.109045         0.206449        -0.418921
 H        -2.862920        -1.186175        -0.416772
 H        -2.644851         0.026997         1.834764
 H        -2.818852         1.900954        -0.973021
 H        -5.090716        -0.121472        -0.623016
 H        -5.201815         1.427180        -0.649352
 H        -2.727214        -0.088175        -3.173735
 H        -3.018120         1.693423        -3.226199
