19
Iteration:   986
 C         1.118450        -0.258978        -0.229945
 C        -0.327251        -0.385010        -0.249377
 C        -1.512896        -0.248357        -0.337263
 C        -2.835057        -0.148300         0.234216
 O        -2.519353         0.805758         1.420814
 C        -3.904801         0.627891        -0.659726
 C        -4.188424        -0.174045        -1.954979
 O        -3.299032         0.795607        -2.755117
 C        -3.241066         1.658897        -1.553738
 H         1.541508         0.453295         0.401187
 H         1.850295        -1.147830        -0.028570
 H         1.443676        -0.149134        -1.282557
 H        -3.171504        -1.154765         0.609974
 H        -3.050366         0.689344         2.202373
 H        -4.664303         0.897952         0.049250
 H        -3.621875        -1.160476        -1.947598
 H        -5.175700        -0.267857        -2.328565
 H        -2.261902         1.950121        -1.168617
 H        -3.776580         2.579695        -1.682573
