19
Iteration:  4148charge 0 multiplicity 1
 C         1.517502         0.035414         0.531511
 C         0.123550        -0.163669         0.006729
 C        -1.110855        -0.204416        -0.204233
 C        -2.523577        -0.342383        -0.375050
 O        -3.242781        -0.435356         0.890634
 C        -2.990637         0.949811        -0.996147
 C        -4.511462         1.148535        -0.993618
 O        -4.508216         0.867289        -2.417251
 C        -3.074366         1.017021        -2.481116
 H         1.489383         0.099585         1.566383
 H         2.161585        -0.785776         0.400395
 H         1.939074         0.950942         0.028390
 H        -2.763997        -1.133869        -1.020994
 H        -2.601206        -0.887964         1.447726
 H        -2.552446         1.796860        -0.330429
 H        -5.180035         0.459507        -0.328654
 H        -4.792576         2.200151        -0.861661
 H        -2.606002         0.167992        -3.017250
 H        -2.963084         2.081976        -2.853567
