19
Iteration:   832
 C         1.273428        -0.241428        -0.500234
 C        -0.017231         0.243858        -0.156112
 C        -1.175925         0.054801         0.312305
 C        -2.617112        -0.096763         0.304993
 O        -3.397010         0.215351         1.536711
 C        -3.266593         0.662188        -0.775782
 C        -4.478925         0.261128        -1.603746
 O        -4.014880         0.995590        -2.770021
 C        -2.588909         0.908518        -2.210896
 H         1.831006        -0.128085         0.367251
 H         1.103441        -1.410826        -0.620552
 H         1.881753         0.269214        -1.269009
 H        -2.725305        -1.163245         0.131285
 H        -4.152372        -0.447153         1.538844
 H        -3.476683         1.625567        -0.319951
 H        -4.464822        -0.822883        -1.746505
 H        -5.509049         0.494395        -1.359918
 H        -2.056934         0.020778        -2.593810
 H        -2.091335         1.867930        -2.352333
