19
Iteration:  1377
 C         1.346279        -0.390929        -0.181567
 C        -0.128912        -0.218784        -0.103786
 C        -1.294510        -0.012312        -0.131882
 C        -2.707595        -0.082932         0.181264
 O        -2.979970         0.282147         1.627456
 C        -3.623475         0.810270        -0.718778
 C        -4.433732         0.086123        -1.848014
 O        -3.804834         0.809681        -2.907356
 C        -2.930191         1.562164        -1.908755
 H         1.723049         0.328443        -1.003974
 H         1.893000        -0.135338         0.666886
 H         1.783344        -1.320719        -0.599744
 H        -3.051197        -1.090396         0.075190
 H        -2.195421         0.073432         2.154332
 H        -4.181807         1.608342        -0.210354
 H        -4.262085        -1.053555        -1.872524
 H        -5.594758         0.172803        -1.762552
 H        -1.849025         1.460213        -2.012800
 H        -3.144521         2.614377        -1.941955
