19
Iteration:  2935charge 0 multiplicity 1
 C         1.361962         0.203207         0.695028
 C         0.035898        -0.067441         0.127739
 C        -1.055886        -0.351514        -0.353870
 C        -2.502347        -0.411129        -0.287614
 O        -2.928829        -0.370400         1.091886
 C        -2.970117         0.831785        -1.203691
 C        -4.389796         1.279030        -1.044052
 O        -4.628923         1.091875        -2.459215
 C        -3.292978         0.562719        -2.674117
 H         1.322263         1.328060         1.045150
 H         1.464008        -0.292662         1.682630
 H         2.177621        -0.160340         0.132057
 H        -2.953679        -1.279657        -0.652218
 H        -2.201270         0.067826         1.570780
 H        -2.221298         1.710567        -1.077138
 H        -4.949627         0.759801        -0.247901
 H        -4.471719         2.402784        -0.805039
 H        -3.399916        -0.533615        -2.859187
 H        -2.802524         1.041512        -3.562568
