19
Iteration:  2386
 C         1.411432         0.292781         0.381679
 C         0.051055        -0.169419         0.189373
 C        -1.073035        -0.639876         0.018777
 C        -2.539180        -0.347076        -0.130414
 O        -2.987171         0.098627         1.133639
 C        -3.031668         0.754733        -1.107027
 C        -4.561175         1.004506        -1.145543
 O        -4.494455         1.064143        -2.655116
 C        -3.154368         0.586766        -2.625573
 H         1.752440         1.019696        -0.477044
 H         1.454883         1.038981         1.232745
 H         2.152865        -0.456624         0.515279
 H        -3.102094        -1.199568        -0.284726
 H        -2.336320        -0.234990         1.754938
 H        -2.580662         1.752324        -0.865388
 H        -5.280181         0.224078        -0.843090
 H        -4.939828         1.987323        -0.878138
 H        -3.038989        -0.464344        -3.168548
 H        -2.329534         1.096096        -3.147789
