19
Iteration:  4098
 C         1.554783        -0.127268         0.259968
 C         0.088511        -0.210931         0.203790
 C        -1.109571        -0.116889        -0.023721
 C        -2.532313        -0.185079        -0.258008
 O        -3.161814        -0.424346         1.018294
 C        -3.147564         1.116170        -0.880819
 C        -4.603647         0.987626        -1.149430
 O        -4.435520         0.710373        -2.651088
 C        -3.005396         1.228130        -2.413966
 H         1.975386        -0.650327         1.233691
 H         2.019671        -0.813331        -0.566276
 H         1.824868         0.899392         0.147847
 H        -2.828417        -1.004312        -1.152335
 H        -2.430127        -0.934266         1.455220
 H        -2.848926         1.914986        -0.262882
 H        -5.241835         0.252181        -0.703374
 H        -5.302196         1.824087        -0.916845
 H        -2.248400         0.534136        -2.794780
 H        -3.019791         2.246635        -2.700418
