19
Iteration:  4037
 C         1.509716        -0.382353         0.023076
 C         0.110160         0.035715        -0.051888
 C        -1.101366        -0.054892         0.016573
 C        -2.537194        -0.035839        -0.061869
 O        -3.243801        -0.267494         1.224443
 C        -3.328816         1.092272        -0.742915
 C        -4.759028         0.632751        -1.374005
 O        -4.113408         0.747150        -2.734054
 C        -2.906078         1.301056        -2.215711
 H         1.495425        -1.310115         0.530763
 H         1.989898        -0.508677        -0.931674
 H         2.154282         0.329601         0.621406
 H        -2.802114        -0.987170        -0.741372
 H        -2.842536        -1.092135         1.620317
 H        -3.611641         2.010083        -0.031621
 H        -4.807271        -0.471821        -1.307433
 H        -5.562630         1.335118        -1.183673
 H        -1.964818         0.722136        -2.474966
 H        -2.892653         2.396576        -2.594729
