19
Iteration:  2428charge 0 multiplicity 1
 C         1.380866         0.198307         0.261628
 C         0.004068        -0.101697        -0.006097
 C        -1.198021        -0.140874        -0.180728
 C        -2.644973        -0.279314        -0.001691
 O        -2.956810        -0.119596         1.394052
 C        -3.186456         0.734591        -0.932603
 C        -4.685759         0.989343        -1.331151
 O        -4.212353         1.170542        -2.758906
 C        -3.012046         0.377350        -2.440876
 H         1.939810         0.467442        -0.661361
 H         1.556720         1.243334         0.776485
 H         1.871946        -0.677024         0.645663
 H        -2.917082        -1.309463        -0.437878
 H        -2.262708        -0.517741         1.978676
 H        -2.637231         1.681484        -0.863067
 H        -5.284211         0.131205        -1.106995
 H        -5.004127         1.909531        -0.884038
 H        -2.988480        -0.754491        -2.582667
 H        -2.174720         0.844995        -2.977082
