19
Iteration:   821charge 0 multiplicity 1
 C         1.319355        -0.209162        -0.443302
 C        -0.081215         0.207777        -0.162939
 C        -1.185076         0.124512         0.293553
 C        -2.640734        -0.129891         0.366669
 O        -3.418078         0.168353         1.485637
 C        -3.185117         0.755702        -0.852136
 C        -4.514749         0.281319        -1.579434
 O        -3.976479         0.979642        -2.704599
 C        -2.644479         0.834521        -2.214536
 H         2.019241        -0.226344         0.321158
 H         1.327495        -1.319062        -0.949073
 H         1.641554         0.334797        -1.357296
 H        -2.766824        -1.169945         0.148991
 H        -4.051345        -0.538316         1.531656
 H        -3.279405         1.788028        -0.508933
 H        -4.593387        -0.784824        -1.786606
 H        -5.412395         0.753188        -1.233356
 H        -2.148136        -0.055266        -2.651949
 H        -1.948355         1.658951        -2.412084
