19
Iteration:  2271charge 0 multiplicity 1
 C         1.543332        -0.295486         0.614167
 C         0.182531         0.051770         0.212927
 C        -0.958674         0.375791        -0.033349
 C        -2.437654        -0.090581        -0.233922
 O        -2.981427        -0.246315         1.101915
 C        -3.118565         0.926534        -1.137287
 C        -4.613185         1.224673        -1.276195
 O        -4.749204         0.735915        -2.614940
 C        -3.267898         0.393851        -2.577860
 H         2.174874         0.593563         0.736446
 H         1.445823        -1.080975         1.507274
 H         2.017167        -1.004553        -0.195011
 H        -2.476778        -0.943637        -0.805332
 H        -2.309641        -0.434572         1.775016
 H        -2.417658         1.756196        -1.062165
 H        -5.231387         0.754375        -0.480955
 H        -4.681895         2.338408        -1.402460
 H        -2.918551        -0.629632        -2.953301
 H        -2.599697         0.942271        -3.263013
