19
Iteration:  1213
 C         0.985106        -0.752314        -0.834569
 C        -0.371355        -0.456828        -0.275852
 C        -1.395782        -0.198825         0.270430
 C        -2.869267         0.092151         0.565904
 O        -3.038810         1.026016         1.634279
 C        -3.685791         0.323255        -0.745666
 C        -3.319433        -0.255995        -2.161224
 O        -3.310182         1.095396        -2.815322
 C        -3.554282         1.673327        -1.466353
 H         1.362857         0.280922        -1.265074
 H         1.668780        -1.289992        -0.261453
 H         1.000969        -1.158822        -1.897031
 H        -3.246123        -0.845982         1.075039
 H        -2.974803         1.926621         1.212139
 H        -4.750775         0.137645        -0.397454
 H        -2.393197        -0.755075        -2.182350
 H        -4.085080        -0.840404        -2.649495
 H        -2.728432         2.307469        -1.107000
 H        -4.424236         2.386706        -1.368899
