19
Iteration:   732charge 0 multiplicity 1
 C         1.334312         0.297053        -0.089330
 C        -0.096597        -0.026222        -0.025120
 C        -1.251725        -0.310737         0.057723
 C        -2.779759        -0.314236         0.021704
 O        -3.248586         0.052892         1.363084
 C        -3.044556         0.860573        -0.908752
 C        -4.432506         1.130330        -1.316928
 O        -4.201784         0.550464        -2.628398
 C        -2.733301         0.526993        -2.422055
 H         1.708028        -0.069278         0.833048
 H         1.758035        -0.263214        -0.978256
 H         1.591705         1.346888        -0.120643
 H        -3.150185        -1.263424        -0.242487
 H        -2.470443         0.390112         1.793685
 H        -2.591136         1.780152        -0.476646
 H        -5.272598         0.678887        -0.783272
 H        -4.573109         2.199049        -1.418849
 H        -2.380085        -0.482229        -2.657458
 H        -2.086490         1.206935        -3.030839
