19
Iteration:  1721
 C         1.447957        -0.488515         0.764800
 C         0.217547         0.111101         0.294808
 C        -0.811969         0.459903        -0.187147
 C        -2.332587         0.106033        -0.231275
 O        -2.874682        -0.007221         1.100535
 C        -3.107319         0.902670        -1.225646
 C        -4.644232         0.952030        -1.240466
 O        -4.836316         0.657895        -2.625382
 C        -3.359102         0.388970        -2.650710
 H         1.795167        -1.196072        -0.064954
 H         2.379890         0.036312         1.013451
 H         1.060693        -0.970247         1.675665
 H        -2.386608        -0.975643        -0.689163
 H        -2.176459         0.452396         1.614142
 H        -2.646021         1.949966        -1.194634
 H        -5.147548         0.217639        -0.587736
 H        -5.179067         1.901287        -0.958550
 H        -3.206662        -0.765569        -2.799606
 H        -2.760959         0.923978        -3.438769
