19
Iteration:  4833
 C         1.594815        -0.107796         0.581312
 C         0.229626        -0.079730         0.086131
 C        -0.976961        -0.065701        -0.111326
 C        -2.428435        -0.212032        -0.339380
 O        -3.205881        -0.724105         0.760752
 C        -3.086944         0.958909        -1.001971
 C        -4.626400         1.166592        -1.010650
 O        -4.662495         0.916502        -2.446470
 C        -3.112520         1.073551        -2.475512
 H         1.798156         0.555247         1.401014
 H         1.748185        -1.116122         0.886119
 H         2.322938         0.161269        -0.257191
 H        -2.552153        -1.043849        -1.134697
 H        -3.148210        -0.139051         1.519890
 H        -2.608859         1.787721        -0.355856
 H        -5.223175         0.456327        -0.498925
 H        -4.798181         2.220970        -0.783813
 H        -2.784537         0.333305        -3.222269
 H        -2.702900         2.038698        -2.864591
