19
Iteration:  2846charge 0 multiplicity 1
 C         1.470809         0.287696         0.509734
 C         0.096203        -0.162712         0.299245
 C        -1.013071        -0.497486        -0.116969
 C        -2.464432        -0.405922        -0.321204
 O        -3.103714        -0.162132         0.958489
 C        -2.963772         0.808036        -1.160860
 C        -4.414608         1.048055        -1.042983
 O        -4.585804         1.294049        -2.478077
 C        -3.318718         0.554572        -2.618844
 H         1.546549         1.203808         1.205768
 H         2.236216        -0.494103         0.780104
 H         1.802161         0.698151        -0.439241
 H        -2.883231        -1.289181        -0.778690
 H        -2.890374        -0.911123         1.513063
 H        -2.260220         1.656626        -0.963231
 H        -4.898592         0.200373        -0.571309
 H        -4.859513         1.852984        -0.464997
 H        -3.515412        -0.495780        -2.836134
 H        -2.672998         1.045653        -3.242015
