19
Iteration:  4093charge 0 multiplicity 1
 C         1.562957        -0.170763         0.241870
 C         0.032705        -0.232171         0.183371
 C        -1.118767        -0.039190        -0.039647
 C        -2.505933        -0.187941        -0.226248
 O        -3.167034        -0.416259         1.019496
 C        -3.111786         1.102559        -0.873035
 C        -4.621593         0.962087        -1.196714
 O        -4.416878         0.715060        -2.657303
 C        -3.016835         1.207541        -2.360132
 H         1.924817        -0.558225         1.127783
 H         1.846300        -0.682974        -0.627654
 H         1.917478         0.913607         0.210515
 H        -2.729036        -0.904817        -0.920207
 H        -2.478038        -0.926675         1.463056
 H        -2.939277         1.927698        -0.086867
 H        -5.216013         0.071333        -0.695696
 H        -5.221545         1.834844        -0.903159
 H        -2.127380         0.727828        -2.836803
 H        -3.003503         2.255281        -2.812046
