19
Iteration:  1049
 C         1.107173        -0.607584        -0.648847
 C        -0.364216        -0.375918        -0.353458
 C        -1.444988        -0.224207         0.112482
 C        -2.865230        -0.002446         0.421284
 O        -2.746026         1.007166         1.515315
 C        -3.812466         0.349241        -0.717368
 C        -3.665421        -0.287488        -2.108896
 O        -3.175963         1.038868        -2.645948
 C        -3.590341         1.677452        -1.490336
 H         1.576086         0.362819        -0.272602
 H         1.500636        -1.561338        -0.331201
 H         1.106020        -0.501588        -1.775507
 H        -3.304621        -0.908916         0.855587
 H        -3.591711         1.439463         1.499380
 H        -4.855160         0.225053        -0.352791
 H        -2.819066        -0.991620        -2.369588
 H        -4.686717        -0.559805        -2.575685
 H        -2.747872         2.192625        -0.983442
 H        -4.465041         2.406302        -1.693753
