19
Iteration:  4048charge 0 multiplicity 1
 C         1.554192        -0.376078         0.081139
 C         0.140345         0.011279        -0.041679
 C        -1.056088        -0.022171         0.022580
 C        -2.590405        -0.095024        -0.082124
 O        -3.241973        -0.289144         1.134013
 C        -3.359949         1.138128        -0.725333
 C        -4.641530         0.675968        -1.382210
 O        -4.199583         0.730575        -2.724195
 C        -2.977078         1.269742        -2.184484
 H         1.608444        -1.211747         0.719994
 H         1.932421        -0.557844        -0.904194
 H         2.132241         0.458475         0.586983
 H        -2.826386        -0.892110        -0.852843
 H        -2.769948        -1.023479         1.584678
 H        -3.129365         2.125012        -0.107192
 H        -5.128309        -0.285646        -0.998453
 H        -5.530537         1.288954        -1.316348
 H        -2.127058         0.627529        -2.591782
 H        -2.644917         2.344683        -2.462467
