19
Iteration:  3033
 C         1.575342        -0.246630         0.287130
 C         0.156152        -0.066475         0.358615
 C        -1.031954         0.041002         0.138045
 C        -2.455949        -0.101304        -0.249114
 O        -3.204302        -0.200136         0.956259
 C        -3.024443         0.990652        -1.149939
 C        -4.601484         0.841721        -1.126779
 O        -4.582853         0.760554        -2.540435
 C        -3.148935         0.943307        -2.604472
 H         1.983204         0.588816        -0.266916
 H         2.012304        -0.182625         1.282459
 H         1.795670        -1.245439         0.006645
 H        -2.546548        -1.080701        -0.718340
 H        -2.627392        -0.199283         1.754429
 H        -2.538380         1.918041        -0.662145
 H        -4.874159        -0.068683        -0.588636
 H        -5.280131         1.568701        -0.711919
 H        -2.615443         0.082661        -2.960225
 H        -3.064127         1.981735        -3.162377
