19
Iteration:  2422charge 0 multiplicity 1
 C         1.381425         0.214197         0.269866
 C        -0.003897        -0.098480         0.066785
 C        -1.184006        -0.173245        -0.216638
 C        -2.649531        -0.317664         0.017370
 O        -2.936933        -0.092689         1.367800
 C        -3.156746         0.732904        -0.962516
 C        -4.642150         0.990402        -1.318358
 O        -4.238346         1.148903        -2.748400
 C        -3.030512         0.409089        -2.473141
 H         1.770404         0.447453        -0.764856
 H         1.367728         1.056129         0.884966
 H         2.015911        -0.598664         0.700568
 H        -2.917101        -1.290440        -0.376464
 H        -2.238220        -0.496619         1.872115
 H        -2.654840         1.696017        -0.709128
 H        -5.299379         0.113932        -0.994656
 H        -5.016262         1.990340        -0.966942
 H        -3.322833        -0.649846        -2.725198
 H        -2.186449         0.911658        -2.960104
