19
Iteration:  3137charge 0 multiplicity 1
 C         1.428201        -0.201006         0.045429
 C        -0.076429        -0.085913        -0.099146
 C        -1.279533        -0.215883        -0.290262
 C        -2.741457        -0.064671         0.024293
 O        -3.005996         0.032155         1.426102
 C        -3.382174         1.051931        -0.727695
 C        -4.662714         0.640238        -1.476793
 O        -3.974817         0.517130        -2.731692
 C        -2.800142         1.261376        -2.196937
 H         1.700792        -0.334312        -1.053663
 H         1.693225         0.719926         0.521167
 H         1.876614        -1.008388         0.492744
 H        -3.208360        -0.943875        -0.339113
 H        -2.650783        -0.657275         1.993440
 H        -3.414417         1.824900        -0.027049
 H        -5.162264        -0.327887        -1.310350
 H        -5.289888         1.545286        -1.415962
 H        -1.811040         0.647533        -2.350726
 H        -2.575015         2.267077        -2.495884
