19
Iteration:  3204charge 0 multiplicity 1
 C         1.434493        -0.076625        -0.466539
 C        -0.062795        -0.267673        -0.223857
 C        -1.261038        -0.204483         0.155366
 C        -2.765542        -0.158166         0.302688
 O        -3.371943         0.011638         1.630894
 C        -3.290720         0.982996        -0.638861
 C        -4.650822         0.641930        -1.707690
 O        -3.764667         0.608360        -2.902897
 C        -2.708956         1.259885        -2.034121
 H         1.665440        -0.696651        -1.388000
 H         1.406602         0.983630        -0.595313
 H         2.125983        -0.222796         0.253750
 H        -3.217361        -1.197002        -0.069145
 H        -2.568766         0.055895         2.167050
 H        -3.472072         1.864766        -0.103720
 H        -5.146431        -0.311115        -1.532494
 H        -5.277774         1.518429        -1.854688
 H        -1.706151         0.766769        -2.378854
 H        -2.666474         2.329622        -2.305207
