19
Iteration:   604charge 0 multiplicity 1
 C         1.596659        -0.234153         0.797138
 C         0.353235         0.117820         0.268848
 C        -0.838709         0.136050        -0.035467
 C        -2.324921        -0.069056        -0.275161
 O        -3.068537         0.233411         0.859735
 C        -3.014606         0.844882        -1.312876
 C        -4.603801         1.055206        -1.078726
 O        -4.866736         0.416237        -2.485507
 C        -3.446511         0.506318        -2.731397
 H         1.620786        -1.287194         1.092690
 H         2.493678        -0.049799         0.081197
 H         1.767224         0.509153         1.620381
 H        -2.305311        -1.168855        -0.562265
 H        -3.169411        -0.500267         1.528208
 H        -2.603339         1.806443        -1.267425
 H        -4.962913         0.458504        -0.216248
 H        -5.000440         2.073489        -0.953058
 H        -3.125514        -0.551912        -2.938977
 H        -3.128851         1.195946        -3.499513
