19
Iteration:  3356
 C         1.384822         0.047585        -0.212479
 C        -0.075825        -0.072823        -0.109736
 C        -1.222291        -0.442511         0.217232
 C        -2.652335        -0.250168         0.163933
 O        -3.245998        -0.028401         1.452674
 C        -3.155654         0.841043        -0.816188
 C        -4.574653         0.733772        -1.479520
 O        -4.088146         1.096284        -2.798668
 C        -2.737181         0.816351        -2.341257
 H         1.874646        -0.923934         0.307062
 H         1.624177        -0.009194        -1.270749
 H         1.578201         0.913359         0.353204
 H        -3.139200        -1.134907         0.023718
 H        -3.037697         0.761675         1.935456
 H        -2.817608         1.808489        -0.457382
 H        -5.094540        -0.250381        -1.504054
 H        -5.392723         1.413137        -1.217755
 H        -2.580733        -0.169408        -2.635058
 H        -1.980296         1.586313        -2.583634
