19
Iteration:  4223
 C         1.462967         0.183079         0.625983
 C         0.119785        -0.215454         0.233138
 C        -1.015075        -0.261000        -0.200953
 C        -2.460359        -0.442567        -0.438562
 O        -3.071423        -0.518051         0.844205
 C        -2.978548         0.794559        -1.055224
 C        -4.470309         1.252295        -0.986791
 O        -4.680677         1.181361        -2.413516
 C        -3.253979         0.861643        -2.557173
 H         1.441333         0.987645         1.320457
 H         1.997529        -0.516350         1.238322
 H         2.051548         0.344687        -0.374043
 H        -2.728893        -1.417058        -1.160633
 H        -2.570218        -1.223201         1.322059
 H        -2.333342         1.751213        -0.736771
 H        -5.129719         0.679915        -0.496167
 H        -4.350543         2.272750        -0.640285
 H        -3.235799        -0.060194        -3.206918
 H        -2.687772         1.647907        -3.134963
