19
Iteration:   176charge 0 multiplicity 1
 C         1.490145        -0.377546         0.078514
 C         0.040833        -0.116139         0.111398
 C        -1.174245        -0.147791         0.076146
 C        -2.632204         0.010147         0.113313
 O        -2.851309         0.651274         1.434092
 C        -3.436908         0.796975        -0.902426
 C        -4.614535         0.103355        -1.614829
 O        -4.247202         0.658500        -2.872287
 C        -3.056252         1.210964        -2.371180
 H         1.960301         0.580266         0.127394
 H         1.823292        -0.893669         1.054257
 H         1.860395        -0.889969        -0.827691
 H        -3.054581        -1.004328         0.078980
 H        -2.000415         0.756365         1.834671
 H        -3.746515         1.664948        -0.351849
 H        -4.685292        -0.988899        -1.664400
 H        -5.562958         0.439571        -1.214774
 H        -2.264981         0.549691        -2.804092
 H        -2.864090         2.244753        -2.639750
