19
Iteration:  2544charge 0 multiplicity 1
 C         1.430374        -0.051185        -0.460642
 C         0.066532        -0.223435         0.065067
 C        -1.089205        -0.154103         0.428937
 C        -2.562631        -0.092407         0.156314
 O        -3.567143         0.023163         1.262704
 C        -3.202811         0.994388        -0.808754
 C        -4.504312         0.473299        -1.383867
 O        -4.081579         0.694483        -2.753604
 C        -2.774110         1.237044        -2.295607
 H         1.774851        -0.821067        -1.187090
 H         1.428296         0.878677        -0.960033
 H         2.101197        -0.219897         0.467660
 H        -2.847987        -1.106510        -0.275783
 H        -3.250958        -0.576772         1.943311
 H        -3.182001         1.941750        -0.277592
 H        -4.743455        -0.577060        -1.172475
 H        -5.449189         1.057109        -1.298795
 H        -1.887398         0.597217        -2.724477
 H        -2.645853         2.299749        -2.593885
