19
Iteration:  3410
 C         1.348627         0.097988         0.212076
 C         0.001485        -0.233445         0.131319
 C        -1.129588        -0.383930        -0.197020
 C        -2.585569        -0.239479        -0.095824
 O        -2.990038         0.014317         1.285122
 C        -3.198007         0.896549        -0.889510
 C        -4.648455         1.012896        -1.287872
 O        -4.315202         0.973802        -2.747992
 C        -2.902981         0.679403        -2.398562
 H         1.801406        -0.505776         1.171149
 H         1.942878        -0.296325        -0.647255
 H         1.439903         1.190660         0.329028
 H        -3.143181        -1.270608        -0.320044
 H        -2.663285        -0.617781         1.926256
 H        -2.741179         1.905933        -0.554330
 H        -5.240245         0.044250        -1.231845
 H        -5.117114         1.960370        -0.998029
 H        -2.654778        -0.347552        -2.633592
 H        -2.079354         1.330450        -2.862375
