19
Iteration:  3522
 C         1.599490        -0.263449         0.630039
 C         0.159153        -0.143456         0.511738
 C        -0.969844        -0.010983        -0.038255
 C        -2.405866        -0.048338        -0.418918
 O        -3.048342        -0.256509         0.897897
 C        -2.986607         1.107810        -1.317794
 C        -4.533744         1.134939        -1.046499
 O        -4.793860         0.695531        -2.420560
 C        -3.331428         0.704469        -2.753816
 H         2.064414         0.110429         1.710792
 H         1.899293        -1.310517         0.562078
 H         2.020663         0.488968         0.085361
 H        -2.647553        -0.976567        -1.129961
 H        -2.615175         0.377466         1.476140
 H        -2.278703         1.908985        -1.316472
 H        -4.863943         0.371800        -0.230482
 H        -4.912684         2.134789        -0.700110
 H        -3.014646        -0.280392        -2.929880
 H        -3.276743         1.527198        -3.494300
