19
Iteration:  1282charge 0 multiplicity 1
 C         1.166127        -0.465799        -0.281355
 C        -0.268395        -0.309857        -0.191379
 C        -1.512906        -0.282872        -0.225401
 C        -2.828357        -0.111577         0.315929
 O        -2.684345         0.864613         1.360758
 C        -3.895452         0.489447        -0.663179
 C        -3.994531        -0.202769        -2.083096
 O        -3.420142         0.957768        -2.729678
 C        -3.272519         1.705890        -1.463353
 H         1.598568         0.393366        -0.713536
 H         1.723908        -0.739893         0.659878
 H         1.468846        -1.174317        -1.037645
 H        -3.393326        -1.011879         0.678545
 H        -1.706271         0.870623         1.569587
 H        -4.874591         0.631656        -0.297998
 H        -3.552586        -1.173905        -2.268389
 H        -5.020767        -0.265792        -2.409679
 H        -2.232187         1.903267        -1.114468
 H        -3.753165         2.723645        -1.586903
