19
Iteration:  1381
 C         1.336783        -0.389512        -0.200342
 C        -0.064901        -0.168277        -0.104547
 C        -1.309922        -0.025349        -0.107989
 C        -2.688419        -0.069308         0.197668
 O        -2.993580         0.252117         1.645029
 C        -3.647106         0.834856        -0.737141
 C        -4.474154         0.058746        -1.859909
 O        -3.819404         0.807408        -2.924939
 C        -2.916065         1.547620        -1.897355
 H         1.675318         0.279066        -1.022694
 H         2.043306        -0.166584         0.743926
 H         1.653957        -1.402785        -0.552444
 H        -3.109011        -1.068048         0.001484
 H        -2.190819         0.093224         2.210780
 H        -4.104986         1.654816        -0.220885
 H        -4.182106        -0.968678        -1.945657
 H        -5.533753         0.321112        -1.719595
 H        -1.848913         1.327255        -2.045242
 H        -2.934621         2.681815        -1.979705
