19
Iteration:   368charge 0 multiplicity 1
 C         1.247191         0.043505        -0.565762
 C        -0.178537         0.124650        -0.241270
 C        -1.282156        -0.005776         0.266795
 C        -2.779242        -0.092057         0.284440
 O        -3.422891         0.244859         1.410123
 C        -3.061276         0.912868        -0.806703
 C        -4.426790         0.971081        -1.421777
 O        -3.931273         0.500336        -2.698194
 C        -2.586910         0.266016        -2.121438
 H         1.622267        -0.110079        -1.665895
 H         1.790947         0.860929        -0.093927
 H         1.632844        -0.694777         0.154878
 H        -3.149319        -1.084084        -0.073693
 H        -3.508729        -0.500483         1.998747
 H        -2.420309         1.851369        -0.704327
 H        -5.110186         0.258297        -0.908379
 H        -4.990425         1.910696        -1.575176
 H        -2.328137        -0.805372        -2.148522
 H        -1.774593         0.912239        -2.622265
