19
Iteration:  1002charge 0 multiplicity 1
 C         1.122801        -0.320918        -0.349955
 C        -0.330436        -0.435516        -0.250211
 C        -1.498603        -0.370724        -0.347945
 C        -2.797537         0.009228         0.296073
 O        -2.624938         0.850503         1.378978
 C        -3.806104         0.535541        -0.635982
 C        -3.985934        -0.196879        -1.976626
 O        -3.282813         0.795495        -2.656568
 C        -3.340961         1.758477        -1.508718
 H         1.295715         0.580208         0.363000
 H         1.509772        -1.199193         0.053158
 H         1.434956        -0.098521        -1.366864
 H        -3.236987        -0.973492         0.622238
 H        -3.459948         0.666920         1.881437
 H        -4.787807         0.726618        -0.126129
 H        -3.642237        -1.202640        -1.999965
 H        -5.105278        -0.119048        -2.209941
 H        -2.331860         2.201418        -1.373024
 H        -4.174439         2.506492        -1.651117
