19
Iteration:  2572
 C         1.369321        -0.137538        -0.362402
 C        -0.047116        -0.117395        -0.122818
 C        -1.192037         0.046390         0.179966
 C        -2.649624        -0.120394         0.094156
 O        -3.414833         0.004792         1.339479
 C        -3.284895         0.953853        -0.752558
 C        -4.528609         0.498970        -1.407579
 O        -3.897315         0.602033        -2.710115
 C        -2.739471         1.246105        -2.138005
 H         1.679848        -1.143278        -0.787521
 H         1.735020         0.580414        -1.170550
 H         1.744978        -0.109841         0.603271
 H        -2.791281        -1.113311        -0.313778
 H        -3.185554        -0.779023         1.822174
 H        -3.249809         1.878497        -0.103346
 H        -4.913036        -0.503406        -1.157815
 H        -5.413716         1.122180        -1.461894
 H        -1.822046         0.740915        -2.580996
 H        -2.630848         2.338096        -2.327120
