19
Iteration:  4749
 C         1.512824         0.157893         0.317348
 C         0.118652        -0.134892         0.127115
 C        -1.068715        -0.360257        -0.092760
 C        -2.538417        -0.417672        -0.233173
 O        -3.204317        -0.474442         1.034868
 C        -3.051955         0.795932        -0.936590
 C        -4.655525         0.876694        -1.162156
 O        -4.417109         1.374100        -2.553815
 C        -3.031300         1.009526        -2.473486
 H         1.736135         0.125370         1.375725
 H         2.180822        -0.533532        -0.175720
 H         1.776157         1.203097        -0.104325
 H        -2.752261        -1.378828        -0.828985
 H        -2.673098        -1.026925         1.662833
 H        -2.859100         1.706602        -0.392983
 H        -5.145656        -0.170006        -1.029380
 H        -5.105426         1.676317        -0.492035
 H        -2.927986         0.146527        -3.139988
 H        -2.432649         1.890446        -2.660318
