19
Iteration:  4848charge 0 multiplicity 1
 C         1.505920        -0.165625         0.572229
 C         0.145377        -0.089111         0.095476
 C        -1.047437         0.049198        -0.106121
 C        -2.423748        -0.285927        -0.382335
 O        -3.114828        -0.751800         0.771753
 C        -3.037119         1.070431        -0.924769
 C        -4.545836         1.158070        -1.028288
 O        -4.611784         0.868916        -2.439608
 C        -3.195256         1.110150        -2.549083
 H         1.612001         0.662913         1.292627
 H         1.686993        -1.110712         1.110978
 H         2.288983        -0.119211        -0.210684
 H        -2.445046        -1.096086        -1.018308
 H        -2.712072        -0.281041         1.539395
 H        -2.523728         2.007703        -0.641223
 H        -5.241016         0.532352        -0.297550
 H        -4.972913         2.082249        -0.754115
 H        -2.535582         0.359245        -3.032606
 H        -3.077322         2.060882        -2.968772
