19
Iteration:  2045
 C         1.412914        -0.113333        -0.405501
 C         0.012335        -0.113127         0.082845
 C        -1.242258        -0.053295         0.166848
 C        -2.678951         0.038686         0.282821
 O        -3.318787         0.390574         1.555113
 C        -3.164704         0.841278        -0.869981
 C        -4.613593         0.707710        -1.465584
 O        -4.053561         0.652038        -2.845428
 C        -2.732940         0.481328        -2.337867
 H         2.071807        -0.689125         0.295084
 H         1.311561        -0.808709        -1.302293
 H         1.751475         0.868559        -0.739007
 H        -3.134060        -1.084396         0.122640
 H        -2.825368         1.163203         1.833139
 H        -2.856912         1.853775        -0.675619
 H        -5.071022        -0.193637        -1.299661
 H        -5.484730         1.331526        -1.237486
 H        -2.423131        -0.566268        -2.450794
 H        -2.007838         1.139094        -2.855490
