19
Iteration:  2931charge 0 multiplicity 1
 C         1.348925         0.239668         0.713410
 C         0.038707        -0.078200         0.103506
 C        -1.056375        -0.396938        -0.317349
 C        -2.506381        -0.426319        -0.277562
 O        -2.905195        -0.347467         1.065190
 C        -2.956305         0.823453        -1.216011
 C        -4.396695         1.298113        -1.044909
 O        -4.652370         1.101781        -2.465885
 C        -3.309065         0.574228        -2.630323
 H         1.411823         1.226784         1.025855
 H         1.379567        -0.332945         1.685676
 H         2.283254        -0.051059         0.103466
 H        -3.001317        -1.369023        -0.695035
 H        -2.188408         0.005370         1.616674
 H        -2.304914         1.649070        -1.139663
 H        -4.978916         0.661167        -0.337518
 H        -4.312590         2.336320        -0.862685
 H        -3.370415        -0.480149        -2.973527
 H        -2.672118         1.028203        -3.517129
