19
Iteration:  2588charge 0 multiplicity 1
 C         1.381833        -0.220979        -0.309154
 C        -0.063438         0.061451        -0.164801
 C        -1.248610         0.013421         0.032793
 C        -2.701442        -0.094895         0.107379
 O        -3.262999        -0.077929         1.429253
 C        -3.369335         1.028069        -0.696181
 C        -4.642124         0.566401        -1.508484
 O        -3.828615         0.523834        -2.743051
 C        -2.694411         1.244209        -2.088063
 H         1.608460        -1.297310        -0.525435
 H         1.754163         0.433899        -1.086931
 H         2.068362        -0.039036         0.669277
 H        -3.145757        -1.077328        -0.439454
 H        -3.028540        -0.844760         1.952303
 H        -3.516145         1.927470        -0.091959
 H        -5.002721        -0.444663        -1.287201
 H        -5.462137         1.327132        -1.463427
 H        -1.814241         0.619815        -2.206347
 H        -2.649621         2.247248        -2.503180
