19
Iteration:  2191charge 0 multiplicity 1
 C         1.652622        -0.292264         0.477402
 C         0.227304        -0.243646         0.333275
 C        -0.985661         0.002220         0.079894
 C        -2.462651        -0.051797        -0.191672
 O        -3.075717         0.373643         1.014025
 C        -3.131224         0.897289        -1.209734
 C        -4.613644         0.735576        -1.148887
 O        -4.683345         0.661088        -2.649705
 C        -3.236372         0.749538        -2.674226
 H         1.877225         0.467960         1.365562
 H         2.105721        -1.184050         0.833107
 H         1.972750         0.108212        -0.494123
 H        -2.714560        -0.991584        -0.515983
 H        -2.586823         0.020542         1.796212
 H        -2.760280         1.856347        -0.789573
 H        -5.017294        -0.295719        -0.745266
 H        -5.212811         1.552468        -0.627772
 H        -2.743211        -0.174564        -2.978929
 H        -2.902920         1.688172        -3.202478
