19
Iteration:  2095
 C         1.368542        -0.151824         0.110213
 C        -0.077891        -0.065174        -0.168859
 C        -1.255628        -0.080092        -0.210124
 C        -2.689181        -0.046030         0.248388
 O        -2.830904         0.451572         1.608089
 C        -3.353099         0.868025        -0.910056
 C        -4.708750         0.674195        -1.555014
 O        -4.156397         0.699569        -2.872609
 C        -2.818108         0.501629        -2.308278
 H         1.485344        -0.266147         1.143653
 H         1.851819        -1.069571        -0.287854
 H         1.714577         0.832140        -0.276444
 H        -3.075715        -1.104003         0.211851
 H        -1.952963         0.200793         1.948786
 H        -3.182455         1.946846        -0.627123
 H        -5.373645        -0.274170        -1.316493
 H        -5.433369         1.488900        -1.434984
 H        -2.460400        -0.578898        -2.375577
 H        -2.074595         1.170200        -2.757804
