19
Iteration:  2734
 C         1.590227        -0.166577         0.034912
 C         0.150185        -0.039941         0.196330
 C        -1.060424        -0.026289         0.117477
 C        -2.559685        -0.118663        -0.055162
 O        -3.229464        -0.354353         1.199032
 C        -3.185999         0.900217        -0.917638
 C        -4.674193         0.793792        -1.302224
 O        -4.410772         0.952091        -2.743212
 C        -2.947700         0.965821        -2.437221
 H         1.938889        -0.547915         0.957593
 H         1.758163        -0.958085        -0.751058
 H         2.194070         0.794643        -0.008053
 H        -2.585568        -1.151389        -0.475816
 H        -3.086000         0.402695         1.824163
 H        -2.995415         1.847873        -0.453001
 H        -5.238527        -0.149459        -1.131847
 H        -5.340452         1.548265        -0.928987
 H        -2.263179         0.173029        -2.833583
 H        -2.606382         1.930246        -2.658611
