19
Iteration:  4817
 C         1.678295        -0.077867         0.522708
 C         0.231334        -0.042499         0.151950
 C        -0.963919        -0.197950        -0.098297
 C        -2.458262        -0.350200        -0.369011
 O        -3.245050        -0.699925         0.795490
 C        -3.077341         1.071380        -0.915126
 C        -4.633146         1.131634        -1.015335
 O        -4.591739         1.016133        -2.488426
 C        -3.224833         1.031153        -2.517660
 H         1.822735         0.545392         1.466083
 H         2.139907        -1.085302         0.803955
 H         2.339457         0.386034        -0.170462
 H        -2.620560        -1.197566        -1.110883
 H        -3.234904         0.074552         1.365047
 H        -2.586375         1.940979        -0.594320
 H        -5.196278         0.205339        -0.648437
 H        -5.094569         2.230307        -0.812907
 H        -2.630999         0.171144        -2.826388
 H        -2.899357         2.021943        -3.032362
