19
Iteration:  2365charge 0 multiplicity 1
 C         1.409614         0.277659         0.480856
 C         0.136375        -0.287583         0.107240
 C        -1.068977        -0.466992         0.022249
 C        -2.530444        -0.418734        -0.151194
 O        -3.151191         0.203024         1.056896
 C        -2.879126         0.781421        -1.191933
 C        -4.427399         0.942053        -1.079643
 O        -4.606517         1.002073        -2.543212
 C        -3.180453         0.625384        -2.678893
 H         1.619453         1.061303        -0.353280
 H         1.401050         0.721272         1.469178
 H         2.192976        -0.440344         0.461730
 H        -3.007857        -1.354952        -0.434852
 H        -2.583411        -0.194515         1.778404
 H        -2.245305         1.635256        -0.830675
 H        -4.964360         0.124635        -0.533923
 H        -4.819681         1.924455        -0.704241
 H        -3.003543        -0.287716        -3.265494
 H        -2.702855         1.249736        -3.441749
