19
Iteration:  1613charge 0 multiplicity 1
 C         1.415496         0.310672         0.603647
 C        -0.045198        -0.107969         0.166550
 C        -1.087678        -0.638321        -0.138489
 C        -2.537663        -0.308204        -0.202044
 O        -3.052136         0.019171         1.060604
 C        -2.859989         0.870738        -1.229834
 C        -4.353864         1.388616        -1.149875
 O        -4.614801         0.606179        -2.385647
 C        -3.223910         0.528750        -2.685646
 H         1.875969         0.202472        -0.295401
 H         1.319018         1.377513         0.962817
 H         1.983291        -0.386183         1.195781
 H        -3.096176        -1.123338        -0.661783
 H        -2.338063         0.376159         1.565860
 H        -2.201551         1.717026        -0.939076
 H        -5.080186         1.033589        -0.400041
 H        -4.402333         2.467231        -1.475752
 H        -2.899628        -0.368524        -3.141483
 H        -2.898747         1.302410        -3.505422
