19
Iteration:  3621
 C         1.470952        -0.162973         0.644281
 C         0.021859        -0.198559         0.263766
 C        -1.038539        -0.058617        -0.294327
 C        -2.521157        -0.242739        -0.381696
 O        -3.038904        -0.189633         0.967835
 C        -2.952013         1.077906        -1.168578
 C        -4.509990         1.198906        -1.044847
 O        -4.610921         0.553986        -2.353859
 C        -3.193499         0.881322        -2.665139
 H         1.724318         0.882094         1.165796
 H         1.672310        -0.795226         1.499601
 H         2.020487        -0.172236        -0.203629
 H        -2.894024        -1.048016        -0.887109
 H        -2.374844         0.113155         1.575037
 H        -2.480625         1.897535        -0.670638
 H        -5.060239         0.428019        -0.420551
 H        -4.826151         2.220158        -1.133248
 H        -2.589069         0.065223        -3.187841
 H        -2.849691         1.776853        -3.334659
