19
Iteration:  2156
 C         1.548065        -0.128296         0.444238
 C         0.139462        -0.328228         0.154213
 C        -1.033271        -0.330587        -0.111518
 C        -2.554279        -0.083020        -0.009669
 O        -2.895019         0.562021         1.276338
 C        -3.193156         0.880502        -1.060839
 C        -4.690192         0.636312        -1.296552
 O        -4.553935         0.678280        -2.780949
 C        -3.118011         0.816359        -2.623806
 H         1.614842         0.480141         1.445469
 H         2.198449        -0.971582         0.417429
 H         2.034878         0.571996        -0.221361
 H        -3.083972        -0.944146        -0.052609
 H        -2.653511        -0.052879         2.011936
 H        -2.989540         1.922436        -0.926006
 H        -4.982238        -0.422213        -0.906549
 H        -5.409857         1.452517        -0.872732
 H        -2.590513         0.011356        -3.076915
 H        -2.851645         1.715500        -3.232824
