19
Iteration:  2119charge 0 multiplicity 1
 C         1.354983        -0.107573         0.292446
 C        -0.022657        -0.133346        -0.074691
 C        -1.248801        -0.204716        -0.265385
 C        -2.643313        -0.098977         0.087251
 O        -2.748063         0.539990         1.367153
 C        -3.311908         0.904228        -0.917487
 C        -4.731239         0.619216        -1.393559
 O        -4.246459         0.716622        -2.804783
 C        -2.903371         0.578072        -2.367497
 H         1.363690        -0.070266         1.318689
 H         1.804705        -1.153211         0.130699
 H         1.886090         0.750899        -0.175102
 H        -3.060185        -1.082956         0.073799
 H        -2.151391        -0.008073         1.957125
 H        -3.104700         1.913950        -0.538558
 H        -5.270384        -0.359468        -1.041066
 H        -5.513197         1.400811        -1.344689
 H        -2.389305        -0.390479        -2.548478
 H        -2.283481         1.384578        -2.701271
