19
Iteration:  3805charge 0 multiplicity 1
 C         1.396061        -0.081482        -0.428432
 C        -0.017903        -0.049260        -0.013985
 C        -1.236070        -0.204689         0.296260
 C        -2.714470        -0.184950         0.146532
 O        -3.427534        -0.021099         1.444950
 C        -3.266079         0.820383        -0.787096
 C        -4.531713         0.490976        -1.553096
 O        -4.010252         1.127945        -2.725046
 C        -2.607905         0.964019        -2.238701
 H         1.539946         0.025818        -1.485927
 H         1.972111         0.651219         0.145381
 H         1.765458        -1.235749        -0.414323
 H        -2.938493        -1.145931        -0.231607
 H        -2.874172        -0.060059         2.218056
 H        -3.267812         1.891043        -0.433582
 H        -4.619572        -0.532702        -1.774759
 H        -5.433020         0.988855        -1.255579
 H        -2.169643         0.044607        -2.585982
 H        -1.951262         1.775456        -2.270904
