19
Iteration:    27charge 0 multiplicity 1
 C         1.526885        -0.227349         0.306319
 C         0.087671        -0.154890        -0.080822
 C        -1.092648         0.110653        -0.092231
 C        -2.566906         0.112128         0.034283
 O        -3.034148         0.151670         1.394498
 C        -3.262429         1.034608        -0.997057
 C        -4.662447         0.621814        -1.347877
 O        -4.391250         0.580502        -2.752927
 C        -3.009535         0.679332        -2.474512
 H         1.782132        -0.269936         1.461153
 H         1.923775        -1.185858         0.029380
 H         2.064482         0.592317        -0.206012
 H        -2.916513        -0.916863        -0.299521
 H        -2.579989         0.887628         1.795145
 H        -3.235437         2.120985        -0.815109
 H        -4.860794        -0.460616        -1.039111
 H        -5.378392         1.393191        -1.110680
 H        -2.529737        -0.328596        -2.790247
 H        -2.426776         1.497409        -2.996408
