19
Iteration:  1096charge 0 multiplicity 1
 C         0.892261        -0.829458        -1.040540
 C        -0.298359        -0.374658        -0.286134
 C        -1.336241         0.021239         0.263279
 C        -2.835509         0.064132         0.440982
 O        -3.156187         1.150397         1.404416
 C        -3.739952         0.260322        -0.746006
 C        -3.176927        -0.284737        -2.012555
 O        -3.258340         1.058526        -2.649120
 C        -3.560686         1.644082        -1.253584
 H         1.695457        -0.130941        -1.001430
 H         1.046589        -1.870952        -0.479237
 H         0.544055        -1.057531        -2.084249
 H        -3.048900        -0.897591         0.855211
 H        -3.916814         0.916842         1.996992
 H        -4.740237        -0.053909        -0.507941
 H        -2.050529        -0.643057        -1.944492
 H        -3.775929        -0.919700        -2.688785
 H        -2.676706         2.202465        -0.855479
 H        -4.458409         2.306930        -1.273826
