19
Iteration:  3784
 C         1.329863        -0.123792        -0.319736
 C        -0.036985        -0.102665         0.026022
 C        -1.210129         0.060801         0.215898
 C        -2.652584        -0.257175         0.141589
 O        -3.343744        -0.098938         1.375507
 C        -3.196039         0.809775        -0.777431
 C        -4.620188         0.578093        -1.481719
 O        -4.035288         1.137415        -2.802415
 C        -2.673242         0.898996        -2.248779
 H         1.586302         0.207176        -1.273181
 H         1.908902         0.495162         0.364111
 H         1.750128        -1.155784        -0.523296
 H        -2.783945        -1.320308        -0.150910
 H        -2.782566        -0.114532         2.180662
 H        -3.211705         1.787259        -0.223369
 H        -4.852421        -0.439847        -1.488932
 H        -5.398462         1.253734        -1.299182
 H        -2.258625        -0.108841        -2.485590
 H        -1.898820         1.584497        -2.460197
