19
Iteration:  1382charge 0 multiplicity 1
 C         1.338758        -0.387553        -0.206891
 C        -0.050196        -0.154964        -0.104047
 C        -1.309392        -0.029765        -0.100669
 C        -2.687391        -0.061599         0.204239
 O        -2.996008         0.243621         1.648896
 C        -3.649790         0.840174        -0.744681
 C        -4.484953         0.054432        -1.859984
 O        -3.821860         0.808566        -2.928566
 C        -2.914257         1.542616        -1.896726
 H         1.662342         0.256628        -1.008051
 H         2.050982        -0.178634         0.738820
 H         1.600726        -1.419632        -0.529737
 H        -3.126783        -1.093789        -0.018097
 H        -2.207364         0.100047         2.202354
 H        -4.108746         1.669066        -0.193393
 H        -4.167404        -0.954553        -1.964912
 H        -5.502286         0.350401        -1.721561
 H        -1.840648         1.274012        -2.059743
 H        -2.893140         2.690560        -1.989703
