19
Iteration:  4269charge 0 multiplicity 1
 C         1.589935         0.110161         0.610821
 C         0.152527        -0.036423         0.143761
 C        -0.977866        -0.376613        -0.072324
 C        -2.426455        -0.356085        -0.367038
 O        -3.204178        -0.565471         0.773474
 C        -3.011203         0.918756        -1.061632
 C        -4.484030         1.027063        -0.970370
 O        -4.635891         1.353786        -2.396680
 C        -3.322591         0.795935        -2.625411
 H         1.774318         1.067038         0.983539
 H         1.670189        -0.402493         1.536071
 H         2.269982        -0.287679        -0.199011
 H        -2.713942        -1.324527        -1.066037
 H        -2.612432        -0.330028         1.492648
 H        -2.274105         1.800179        -0.767449
 H        -4.897181         0.114952        -0.761729
 H        -4.864203         1.822548        -0.448302
 H        -3.193934        -0.306216        -2.832617
 H        -2.688492         1.398869        -3.396093
