19
Iteration:  3342charge 0 multiplicity 1
 C         1.356059         0.005588        -0.331462
 C        -0.038334        -0.089260        -0.045725
 C        -1.245645        -0.303976         0.169585
 C        -2.751640        -0.255539         0.175569
 O        -3.329559        -0.044139         1.496295
 C        -3.177825         0.860235        -0.826164
 C        -4.559670         0.685509        -1.468985
 O        -4.010545         1.114704        -2.749418
 C        -2.658889         0.776142        -2.280114
 H         1.884724        -0.914531        -0.013941
 H         1.667322         0.148210        -1.401359
 H         1.963240         0.845949         0.184468
 H        -3.075200        -1.220791        -0.366694
 H        -3.230535         0.959636         1.514458
 H        -3.230711         1.916055        -0.304606
 H        -4.686065        -0.419216        -1.456556
 H        -5.365959         1.296791        -1.067185
 H        -2.320984        -0.230621        -2.513907
 H        -1.966663         1.506161        -2.749131
