19
Iteration:  2598charge 0 multiplicity 1
 C         1.408652        -0.211700        -0.277864
 C        -0.039909         0.099017        -0.149664
 C        -1.263801        -0.013023        -0.024146
 C        -2.782577        -0.091914         0.122630
 O        -3.164255        -0.114416         1.472902
 C        -3.459816         1.085729        -0.662847
 C        -4.587797         0.630657        -1.556383
 O        -3.814373         0.479660        -2.807076
 C        -2.781426         1.200777        -2.036018
 H         1.393706        -1.352979        -0.499672
 H         1.898465         0.152443        -1.172715
 H         2.019288         0.039189         0.722820
 H        -3.119622        -1.080050        -0.478248
 H        -2.787258        -0.893759         1.862464
 H        -3.505232         2.028181        -0.097993
 H        -5.104075        -0.265457        -1.284735
 H        -5.385942         1.392634        -1.728891
 H        -1.889099         0.697827        -2.179875
 H        -2.486306         2.200970        -2.305167
