19
Iteration:   749charge 0 multiplicity 1
 C         1.370675         0.224906        -0.237190
 C        -0.041683        -0.043653         0.093503
 C        -1.195150        -0.287778         0.104055
 C        -2.650134        -0.217468         0.160503
 O        -3.326870         0.035769         1.386298
 C        -3.052235         0.860761        -0.867427
 C        -4.562144         1.071326        -1.429729
 O        -4.158523         0.637394        -2.781547
 C        -2.777416         0.515973        -2.302228
 H         2.165910        -0.002308         0.615880
 H         1.637006        -0.319799        -1.113829
 H         1.362308         1.285842        -0.574524
 H        -3.112320        -1.162576        -0.347556
 H        -2.860433        -0.045512         2.210342
 H        -2.529149         1.797257        -0.588477
 H        -5.339327         0.370435        -1.038048
 H        -4.909570         2.146576        -1.404433
 H        -2.292608        -0.474968        -2.428476
 H        -2.176624         1.293739        -2.783914
