19
Iteration:  4524
 C         1.398317        -0.054864        -0.341299
 C        -0.080922         0.049678        -0.113436
 C        -1.284320        -0.009754         0.120072
 C        -2.717565        -0.257707        -0.070402
 O        -3.297333        -0.753830         1.154190
 C        -3.410647         1.000156        -0.563123
 C        -4.591692         0.794637        -1.494663
 O        -3.759599         0.726309        -2.645328
 C        -2.725218         1.503830        -1.925579
 H         1.738409        -0.927689        -1.020524
 H         1.915019         0.821022        -0.875434
 H         1.906666        -0.340338         0.530900
 H        -2.677192        -1.078946        -0.872619
 H        -3.325857        -0.042318         1.816449
 H        -3.419739         1.794075         0.280328
 H        -5.161559        -0.326824        -1.272245
 H        -5.344572         1.595605        -1.290446
 H        -1.719908         1.167605        -2.149982
 H        -2.761956         2.601492        -2.150834
