19
Iteration:  3673
 C         1.489456         0.028153         0.422153
 C         0.161622        -0.289067         0.046477
 C        -1.071229        -0.417765        -0.066700
 C        -2.554258        -0.232987        -0.198347
 O        -3.169866        -0.029002         1.123104
 C        -3.086323         1.019780        -1.025597
 C        -4.596524         1.051281        -1.148671
 O        -4.466768         0.698769        -2.570969
 C        -3.039206         0.980481        -2.582753
 H         1.644147         1.075200         0.382775
 H         1.624580        -0.259278         1.463827
 H         2.209584        -0.564275        -0.298722
 H        -3.032419        -1.181250        -0.682444
 H        -2.614957        -0.491098         1.747214
 H        -2.628334         1.886885        -0.432390
 H        -5.214413         0.186002        -0.732760
 H        -5.109410         2.012870        -1.031694
 H        -2.325349         0.232922        -3.031536
 H        -2.729266         1.856243        -3.109296
