19
Iteration:  1224charge 0 multiplicity 1
 C         1.027469        -0.652987        -0.733295
 C        -0.394008        -0.523079        -0.379939
 C        -1.386318        -0.179158         0.228047
 C        -2.826916        -0.042895         0.571798
 O        -3.001221         1.040055         1.557911
 C        -3.715322         0.366117        -0.704891
 C        -3.453793        -0.250851        -2.176697
 O        -3.329828         1.107260        -2.777466
 C        -3.487948         1.670495        -1.474222
 H         1.527810         0.402103        -0.805013
 H         1.543346        -1.101585         0.069752
 H         1.059055        -1.358929        -1.610522
 H        -3.242933        -0.964293         1.071149
 H        -2.831688         1.897362         1.161401
 H        -4.760630         0.341700        -0.280786
 H        -2.563367        -0.798891        -2.190334
 H        -4.277538        -0.765218        -2.636856
 H        -2.586434         2.234957        -1.185974
 H        -4.412264         2.293136        -1.562467
