19
Iteration:   249
 C         1.286715        -0.145302        -0.385485
 C        -0.160986        -0.177531        -0.301191
 C        -1.277974        -0.064058         0.125379
 C        -2.753324         0.040550         0.346019
 O        -3.159148         0.590279         1.674450
 C        -3.357188         0.914933        -0.802840
 C        -4.530394         0.307217        -1.603514
 O        -3.862881         0.546887        -2.877799
 C        -2.663338         0.838167        -2.183754
 H         1.504403         0.760914        -1.003728
 H         1.729212        -0.024829         0.681754
 H         1.768702        -1.044730        -0.786328
 H        -3.183399        -0.989688         0.244639
 H        -2.814333        -0.082230         2.306033
 H        -3.576782         1.901747        -0.320235
 H        -4.574870        -0.780452        -1.343698
 H        -5.500651         0.932792        -1.683284
 H        -1.971421        -0.046204        -2.143539
 H        -2.256021         1.782770        -2.555703
