19
Iteration:   763
 C         1.405186         0.203271        -0.388380
 C         0.040882        -0.100755         0.154084
 C        -1.138952        -0.222797         0.269137
 C        -2.721319        -0.184858         0.167986
 O        -3.380445         0.045856         1.442238
 C        -3.194382         0.942097        -0.875955
 C        -4.571408         0.953528        -1.472872
 O        -4.135368         0.718008        -2.824501
 C        -2.696713         0.529468        -2.318304
 H         2.222867         0.023769         0.435935
 H         1.698097        -0.547609        -1.137742
 H         1.619499         1.222141        -0.732592
 H        -3.003447        -1.205662        -0.119943
 H        -2.837802        -0.637995         1.952506
 H        -2.845681         1.964663        -0.490190
 H        -5.197364         0.162303        -1.050419
 H        -5.167510         1.846750        -1.387104
 H        -2.500631        -0.518462        -2.486404
 H        -1.933926         1.188076        -2.812520
