19
Iteration:  4852
 C         1.498398        -0.180868         0.575599
 C         0.149758        -0.085802         0.106374
 C        -1.051409         0.046889        -0.104075
 C        -2.442906        -0.253448        -0.401805
 O        -3.098242        -0.761812         0.789037
 C        -3.036781         1.099074        -0.953098
 C        -4.551994         1.152889        -1.019910
 O        -4.589170         0.845623        -2.447874
 C        -3.213022         1.114394        -2.512150
 H         1.612022         0.726463         1.246030
 H         1.637359        -1.149719         1.166717
 H         2.182454        -0.103606        -0.234634
 H        -2.479679        -1.166035        -1.124409
 H        -2.633216        -0.323180         1.507819
 H        -2.441065         1.889209        -0.543999
 H        -5.096725         0.486416        -0.407477
 H        -4.993652         2.212215        -0.654698
 H        -2.649295         0.381672        -3.085167
 H        -3.086028         2.126082        -3.158340
