19
Iteration:  3267
 C         1.116505        -0.194926        -0.626908
 C        -0.128970         0.146694        -0.017022
 C        -1.291253        -0.088522         0.287906
 C        -2.724565        -0.137786         0.312205
 O        -3.423179        -0.175849         1.579949
 C        -3.162662         0.964281        -0.772668
 C        -4.500955         0.506038        -1.568243
 O        -3.799720         0.886612        -2.844580
 C        -2.507621         1.038156        -2.166404
 H         1.196880        -1.201353        -1.243598
 H         1.207296         0.400313        -1.550438
 H         2.054726        -0.052617        -0.102380
 H        -2.902158        -1.058551        -0.174205
 H        -3.002936         0.390056         2.209790
 H        -3.241294         1.865754        -0.201267
 H        -4.787057        -0.567075        -1.542657
 H        -5.393817         1.135708        -1.424054
 H        -1.924767         0.072941        -2.300680
 H        -1.955606         1.997483        -2.331533
