19
Iteration:  2393charge 0 multiplicity 1
 C         1.405116         0.317927         0.354565
 C         0.037654        -0.140606         0.206668
 C        -1.074789        -0.587843        -0.054507
 C        -2.571254        -0.361628        -0.089818
 O        -2.954365         0.073542         1.192746
 C        -3.048876         0.772190        -1.098076
 C        -4.610863         0.989824        -1.186451
 O        -4.452257         1.104324        -2.707255
 C        -3.114460         0.526397        -2.568474
 H         1.559383         0.663472        -0.615921
 H         1.521819         0.953039         1.324124
 H         2.151434        -0.513601         0.556412
 H        -3.155125        -1.325049        -0.465295
 H        -2.230413        -0.304561         1.758277
 H        -2.515962         1.664817        -0.818988
 H        -5.313600         0.299114        -0.721509
 H        -4.956391         1.983053        -0.873924
 H        -3.141123        -0.475138        -3.064750
 H        -2.398393         1.174884        -3.143867
