19
Iteration:  4798charge 0 multiplicity 1
 C         1.582587         0.025168         0.448966
 C         0.161820        -0.122406         0.230384
 C        -0.992525        -0.317737        -0.062487
 C        -2.479792        -0.235800        -0.338302
 O        -3.194540        -0.677655         0.838669
 C        -3.043971         1.012434        -0.968395
 C        -4.606783         1.039429        -1.050221
 O        -4.630597         1.106906        -2.505411
 C        -3.079184         1.047941        -2.522775
 H         1.845524         0.438837         1.457478
 H         2.100692        -0.971898         0.329705
 H         2.009686         0.596325        -0.343524
 H        -2.634880        -1.242414        -0.995396
 H        -3.133210        -0.003138         1.517769
 H        -2.585780         1.967739        -0.590419
 H        -5.006048         0.198554        -0.653669
 H        -5.067895         1.848249        -0.443478
 H        -2.893961         0.053605        -2.913467
 H        -2.661173         2.002255        -3.078618
