19
Iteration:    92
 C         1.440442        -0.512468         0.437250
 C         0.194249        -0.011157         0.140849
 C        -0.981128         0.117921        -0.138630
 C        -2.488791         0.023745         0.002766
 O        -2.772098         0.503344         1.429713
 C        -3.399495         0.751888        -1.064175
 C        -4.744565         0.071440        -1.493858
 O        -4.520358         0.798758        -2.768140
 C        -3.114242         1.089560        -2.530388
 H         2.064650        -0.091376         1.385974
 H         1.258875        -1.495953         0.495550
 H         2.003478        -0.364633        -0.505074
 H        -2.766933        -1.053422        -0.049545
 H        -2.339466         1.420579         1.479588
 H        -3.590632         1.719741        -0.610659
 H        -4.704750        -1.068959        -1.663353
 H        -5.588166         0.520382        -0.994140
 H        -2.546787         0.276499        -3.050293
 H        -2.697883         2.110344        -2.845034
