19
Iteration:  1178charge 0 multiplicity 1
 C         0.714431        -0.903339        -1.084515
 C        -0.289747        -0.317352        -0.105094
 C        -1.435651        -0.029749         0.264496
 C        -2.830664         0.046833         0.577089
 O        -3.186459         0.991540         1.506102
 C        -3.628830         0.315755        -0.682964
 C        -3.011736        -0.201419        -1.984707
 O        -3.286617         1.043425        -2.793689
 C        -3.594034         1.714890        -1.445499
 H         1.339762         0.112245        -1.288153
 H         1.501185        -1.653083        -0.886647
 H         0.058178        -1.197047        -1.939926
 H        -3.168848        -0.971935         0.844952
 H        -2.475913         1.686116         1.470466
 H        -4.727518        -0.015252        -0.622219
 H        -2.002976        -0.246101        -1.876852
 H        -3.381522        -1.104785        -2.474673
 H        -2.754098         2.393290        -1.235770
 H        -4.592255         2.124534        -1.359523
