19
Iteration:  4715charge 0 multiplicity 1
 C         1.461765         0.185747         0.225921
 C         0.083310        -0.085443        -0.050145
 C        -1.112448        -0.331818        -0.136794
 C        -2.583917        -0.454669        -0.151887
 O        -3.122820        -0.442055         1.196293
 C        -3.178222         0.746108        -0.822182
 C        -4.642062         0.768386        -1.309228
 O        -4.290352         1.501807        -2.604944
 C        -2.948250         0.985482        -2.323889
 H         1.719174        -0.132602         1.211731
 H         2.170799        -0.293395        -0.402906
 H         1.678940         1.336300         0.300298
 H        -2.898274        -1.487498        -0.652160
 H        -3.456953        -1.354058         1.404494
 H        -2.850039         1.665063        -0.264755
 H        -5.162965        -0.230409        -1.484336
 H        -5.284368         1.394971        -0.702469
 H        -2.879112         0.058567        -2.919976
 H        -2.098536         1.492534        -2.661431
