19
Iteration:   441
 C         1.366140         0.153777         0.006590
 C         0.003386        -0.302496         0.219704
 C        -1.195958        -0.329964         0.063906
 C        -2.613827        -0.058678         0.056035
 O        -3.041443         0.441267         1.363797
 C        -3.087766         0.873465        -1.048021
 C        -4.607200         0.850073        -1.367453
 O        -4.351287         0.585654        -2.733755
 C        -2.888319         0.479395        -2.492869
 H         1.832836        -0.272414        -0.882349
 H         1.404172         1.207891        -0.066455
 H         1.976047         0.044968         0.902256
 H        -3.160000        -1.002821        -0.094857
 H        -2.232521         0.435923         1.888185
 H        -2.755185         1.910987        -0.751038
 H        -5.105324        -0.023362        -0.876249
 H        -5.206608         1.709537        -1.097415
 H        -2.415704        -0.489590        -2.712811
 H        -2.487608         1.215737        -3.167610
