19
Iteration:  2408charge 0 multiplicity 1
 C         1.383699         0.262426         0.299396
 C        -0.021180        -0.136548         0.220364
 C        -1.144590        -0.372768        -0.196575
 C        -2.588970        -0.390330        -0.094206
 O        -2.924714        -0.000140         1.318117
 C        -3.116061         0.723620        -0.997672
 C        -4.586264         1.055181        -1.293790
 O        -4.390637         1.118197        -2.699318
 C        -3.070248         0.500106        -2.549649
 H         1.845733         0.754132        -0.637995
 H         1.573696         1.145326         0.962305
 H         2.009887        -0.550813         0.607726
 H        -3.041253        -1.315109        -0.218726
 H        -2.211210        -0.379759         1.892874
 H        -2.578988         1.664386        -0.705475
 H        -5.231594         0.177619        -1.203513
 H        -5.062520         1.934535        -0.840712
 H        -3.007811        -0.695068        -2.729817
 H        -2.243332         0.839561        -3.210461
