19
Iteration:   880charge 0 multiplicity 1
 C         1.327223        -0.237851        -0.434272
 C        -0.068725        -0.258479         0.036103
 C        -1.241066         0.069545         0.082569
 C        -2.750082        -0.049668         0.234780
 O        -3.016329         0.272112         1.745702
 C        -3.526568         0.852220        -0.836444
 C        -4.401716         0.030192        -1.769876
 O        -3.890492         0.850412        -2.938800
 C        -2.828192         1.318282        -2.081226
 H         1.962960         0.332658         0.303521
 H         1.727985        -1.184752        -0.643078
 H         1.267598         0.444482        -1.277120
 H        -3.024835        -1.056875         0.175293
 H        -3.965017         0.238714         1.870403
 H        -4.062104         1.541708        -0.196401
 H        -4.214870        -1.042782        -1.838472
 H        -5.516389         0.180816        -1.541498
 H        -1.900306         0.685974        -2.098888
 H        -2.590013         2.380255        -1.961690
