19
Iteration:  1337charge 0 multiplicity 1
 C         1.365274        -0.323939        -0.124079
 C        -0.078836        -0.439518        -0.278351
 C        -1.348756        -0.380771        -0.196578
 C        -2.774040        -0.040663         0.184222
 O        -2.841105         0.601010         1.512082
 C        -3.733879         0.774530        -0.713336
 C        -4.356219        -0.016970        -1.878656
 O        -3.613387         0.802797        -2.834744
 C        -3.184408         1.723139        -1.752144
 H         1.614104         0.636066        -0.610322
 H         1.560864        -0.192013         1.027318
 H         1.993052        -1.154543        -0.463049
 H        -3.298338        -1.104039         0.249613
 H        -2.316023        -0.041467         2.056617
 H        -4.384961         1.112789         0.059391
 H        -3.884500        -0.935926        -1.825220
 H        -5.365357         0.079534        -2.152386
 H        -2.154457         2.103913        -1.767635
 H        -3.850665         2.656226        -1.838161
