19
Iteration:  2882
 C         1.290636         0.390356         0.667005
 C         0.130681        -0.351772         0.161568
 C        -0.992486        -0.529812        -0.284594
 C        -2.482939        -0.425783        -0.335596
 O        -3.022432        -0.098324         1.016130
 C        -2.895323         0.676607        -1.168688
 C        -4.355695         1.151379        -0.973114
 O        -4.641059         1.242456        -2.436094
 C        -3.340287         0.594126        -2.677847
 H         0.904780         1.406850         1.086846
 H         1.882372        -0.053678         1.429015
 H         1.874376         0.640404        -0.175506
 H        -2.965682        -1.371308        -0.696078
 H        -2.501119        -0.648615         1.621056
 H        -2.134363         1.529702        -1.152881
 H        -4.745687         0.270759        -0.490747
 H        -4.433980         2.155059        -0.500652
 H        -3.396095        -0.337350        -3.266589
 H        -2.842442         1.196668        -3.333268
