19
Iteration:  3034charge 0 multiplicity 1
 C         1.566175        -0.257395         0.291730
 C         0.147209        -0.059330         0.357370
 C        -1.035613         0.035711         0.139512
 C        -2.452829        -0.098230        -0.256235
 O        -3.196606        -0.193816         0.951273
 C        -3.026753         0.993181        -1.139518
 C        -4.603329         0.838764        -1.123849
 O        -4.581720         0.754609        -2.547943
 C        -3.139360         0.947061        -2.596031
 H         1.979682         0.613048        -0.336994
 H         2.006060        -0.169624         1.271100
 H         1.807635        -1.232768        -0.028586
 H        -2.572409        -1.054023        -0.701115
 H        -2.616353        -0.203731         1.760157
 H        -2.541355         1.928328        -0.639111
 H        -4.856158        -0.093120        -0.596708
 H        -5.288518         1.559522        -0.677011
 H        -2.594604         0.061563        -2.959434
 H        -3.061507         1.978001        -3.153290
