19
Iteration:   315
 C         1.083505        -0.039083        -0.765216
 C        -0.012695        -0.095874         0.133788
 C        -1.171293         0.020481         0.509615
 C        -2.652836        -0.052974         0.314293
 O        -3.509351         0.373387         1.466821
 C        -3.135411         0.812769        -0.836833
 C        -4.523956         0.705336        -1.492988
 O        -3.891110         0.490784        -2.802373
 C        -2.520780         0.626612        -2.264811
 H         0.698191         0.373290        -1.771752
 H         1.848436         0.799739        -0.478070
 H         1.466356        -1.033418        -1.055756
 H        -2.902119        -1.109410         0.156825
 H        -3.163159        -0.100573         2.233645
 H        -2.904760         1.859676        -0.575231
 H        -5.189083        -0.126143        -1.179596
 H        -4.962115         1.750038        -1.570885
 H        -1.902191        -0.316488        -2.279545
 H        -2.090090         1.509333        -2.790172
