19
Iteration:  4651charge 0 multiplicity 1
 C         1.486306         0.179578        -0.129941
 C         0.005197        -0.017417        -0.015360
 C        -1.158298        -0.384655        -0.029354
 C        -2.674892        -0.429902        -0.034745
 O        -3.191002        -0.499710         1.327500
 C        -3.330693         0.806377        -0.711557
 C        -4.720656         0.744553        -1.494863
 O        -4.072056         1.318385        -2.699045
 C        -2.740399         1.188562        -2.128482
 H         1.987120        -0.619493         0.382339
 H         1.894283         0.200416        -1.119539
 H         1.757923         1.147124         0.427479
 H        -3.067146        -1.309501        -0.609506
 H        -3.309997        -1.418496         1.601620
 H        -3.280800         1.619953        -0.075654
 H        -5.226579        -0.497530        -1.689931
 H        -5.527075         1.481914        -1.188709
 H        -2.167788         0.330945        -2.610258
 H        -1.958679         2.084148        -2.163180
