19
Iteration:   219
 C         1.329220        -0.263160        -0.149320
 C        -0.094988        -0.148772        -0.147008
 C        -1.266047         0.043416        -0.071518
 C        -2.706713         0.044259         0.312130
 O        -2.912914         0.610585         1.526398
 C        -3.495175         0.807915        -0.799637
 C        -4.623734         0.223525        -1.650826
 O        -3.941362         0.615742        -2.879441
 C        -2.785552         0.926866        -2.146962
 H         1.670960         0.631037        -0.483569
 H         1.712264        -0.319928         0.934348
 H         1.670770        -0.966101        -0.901026
 H        -3.045004        -1.033558         0.399530
 H        -2.499891         0.039991         2.164917
 H        -3.977539         1.615640        -0.284343
 H        -4.994677        -0.832140        -1.562282
 H        -5.580400         0.815145        -1.689217
 H        -1.950400         0.131405        -2.178631
 H        -2.321684         1.865725        -2.441792
