19
Iteration:  2686charge 0 multiplicity 1
 C         1.510992        -0.141600         0.038873
 C         0.068090        -0.192009        -0.139171
 C        -1.158406        -0.343988        -0.047286
 C        -2.655596        -0.116110        -0.044712
 O        -3.234569        -0.085328         1.318739
 C        -3.271265         1.090564        -0.788973
 C        -4.618883         0.556701        -1.310964
 O        -4.120064         0.659669        -2.772709
 C        -2.902320         1.340941        -2.254113
 H         2.060222        -0.680519         0.850949
 H         1.934374        -0.324244        -0.930814
 H         1.718884         0.889521         0.508487
 H        -2.968250        -1.032300        -0.425352
 H        -2.920025         0.770413         1.579281
 H        -3.250637         1.995880        -0.188622
 H        -4.930037        -0.464389        -1.148114
 H        -5.529886         1.097323        -1.021270
 H        -2.042476         0.871552        -2.595312
 H        -2.780978         2.494827        -2.341864
