19
Iteration:   887charge 0 multiplicity 1
 C         1.337845        -0.177488        -0.363108
 C        -0.069671        -0.341412        -0.008014
 C        -1.259778         0.018684         0.048259
 C        -2.774612        -0.028493         0.276631
 O        -2.970525         0.291429         1.704713
 C        -3.539016         0.866182        -0.780860
 C        -4.386579         0.032803        -1.778564
 O        -3.877359         0.814472        -2.969364
 C        -2.874912         1.384912        -2.013977
 H         2.057795         0.282889         0.222183
 H         1.866956        -1.230552        -0.694306
 H         1.277269         0.347051        -1.355908
 H        -3.160587        -1.131105         0.203416
 H        -3.953532         0.280627         1.885796
 H        -4.149310         1.602086        -0.256563
 H        -4.123059        -1.039366        -1.737241
 H        -5.450106         0.118545        -1.849112
 H        -1.985940         0.733506        -2.076224
 H        -2.705354         2.451608        -2.186506
