19
Iteration:   471charge 0 multiplicity 1
 C         1.495308         0.017644         0.329425
 C         0.078818        -0.169198         0.059856
 C        -1.117455        -0.320205        -0.065117
 C        -2.523401        -0.092564         0.045610
 O        -3.029556         0.484905         1.222348
 C        -3.103099         0.862248        -1.077998
 C        -4.619224         0.746648        -1.291663
 O        -4.491487         0.627399        -2.669524
 C        -3.033297         0.542379        -2.559454
 H         2.189460        -0.635390        -0.141958
 H         1.755744         1.197668         0.153999
 H         1.565202        -0.209348         1.437922
 H        -3.123348        -1.000529         0.014455
 H        -2.330493         1.170098         1.467473
 H        -2.918516         1.782261        -0.690770
 H        -4.997294        -0.192673        -0.840814
 H        -5.240552         1.596890        -0.889846
 H        -2.656015        -0.521124        -2.750667
 H        -2.754775         1.130517        -3.425421
