19
Iteration:  1402charge 0 multiplicity 1
 C         1.368611        -0.421636        -0.307380
 C        -0.038061         0.091239        -0.066659
 C        -1.265477        -0.026508         0.104308
 C        -2.742812        -0.066041         0.212334
 O        -3.062652         0.137419         1.617002
 C        -3.603418         0.811480        -0.702892
 C        -4.476912         0.190674        -1.830492
 O        -3.869127         0.898858        -2.904346
 C        -2.862413         1.316888        -2.056781
 H         1.999164        -0.066329        -1.181251
 H         2.043657        -0.180766         0.648770
 H         1.524480        -1.512646        -0.459152
 H        -3.056932        -1.033360         0.001103
 H        -2.230902         0.197374         2.054033
 H        -4.175982         1.606104        -0.272361
 H        -4.284366        -0.911645        -1.803932
 H        -5.607510         0.394098        -1.830969
 H        -1.860888         0.945703        -2.107828
 H        -2.704279         2.402832        -2.199846
