19
Iteration:  1601charge 0 multiplicity 1
 C         1.264123         0.313010         0.444730
 C        -0.031061        -0.145340         0.185028
 C        -1.104272        -0.532994        -0.167379
 C        -2.583530        -0.286893        -0.219681
 O        -3.057255        -0.052384         1.118779
 C        -2.870283         0.895913        -1.131783
 C        -4.305929         1.398688        -1.196126
 O        -4.570203         0.624308        -2.442379
 C        -3.131594         0.464570        -2.611133
 H         1.836303         0.529148        -0.386962
 H         1.210103         1.325997         0.884422
 H         1.781412        -0.241341         1.206424
 H        -3.142868        -1.202634        -0.460248
 H        -2.305173         0.193647         1.710155
 H        -2.024798         1.594679        -1.110509
 H        -4.908977         1.257705        -0.277560
 H        -4.377239         2.516725        -1.397718
 H        -2.896379        -0.538719        -2.858324
 H        -2.706421         1.264421        -3.304335
