19
Iteration:  4607charge 0 multiplicity 1
 C         1.365039         0.121593        -0.295870
 C        -0.068869        -0.164707        -0.125950
 C        -1.246379        -0.171992         0.144723
 C        -2.684665        -0.349273        -0.029176
 O        -3.398126        -0.571622         1.201558
 C        -3.283340         0.930816        -0.679940
 C        -4.537977         0.597190        -1.412951
 O        -3.925954         1.081343        -2.691853
 C        -2.667141         1.404258        -2.003302
 H         1.902605        -0.795601        -0.278813
 H         1.467637         0.587885        -1.249843
 H         1.718097         0.901708         0.441893
 H        -2.821484        -1.156500        -0.617320
 H        -2.631276        -0.606882         1.791285
 H        -3.227860         1.652390         0.042890
 H        -4.850344        -0.572293        -1.492150
 H        -5.388533         1.212177        -1.025631
 H        -1.781805         0.776590        -2.363667
 H        -2.437564         2.578239        -2.099156
