19
Iteration:  2764
 C         1.566620        -0.132629         0.145543
 C         0.130161         0.110883         0.245647
 C        -1.072329         0.024223         0.104921
 C        -2.557929        -0.126802        -0.156215
 O        -3.189775        -0.522642         1.116393
 C        -3.110300         1.022398        -0.971227
 C        -4.691925         0.914038        -1.215672
 O        -4.426818         1.123971        -2.714351
 C        -3.052808         0.638231        -2.416858
 H         1.906350        -0.446704         1.140819
 H         1.720486        -1.097074        -0.391910
 H         2.277548         0.631155        -0.442238
 H        -2.634669        -1.066223        -0.630713
 H        -2.621557        -0.137900         1.807201
 H        -2.699656         1.949447        -0.619976
 H        -4.948926        -0.161412        -1.146836
 H        -5.389538         1.696864        -0.865806
 H        -2.761949        -0.374658        -2.498926
 H        -2.245189         1.147547        -3.144770
