19
Iteration:  1616
 C         1.426419         0.307521         0.620933
 C        -0.032100        -0.113435         0.174379
 C        -1.084151        -0.637271        -0.127223
 C        -2.527667        -0.328588        -0.226547
 O        -3.061051         0.035332         1.055295
 C        -2.854037         0.874890        -1.241093
 C        -4.361095         1.378023        -1.158546
 O        -4.636939         0.602515        -2.370163
 C        -3.231452         0.550148        -2.705135
 H         2.017664         0.177130        -0.333736
 H         1.435795         1.399388         1.033345
 H         1.967576        -0.427941         1.283641
 H        -3.121231        -1.072478        -0.612812
 H        -2.278139         0.439491         1.525135
 H        -2.225105         1.726567        -0.957025
 H        -5.066626         0.981883        -0.450681
 H        -4.405303         2.408608        -1.392684
 H        -2.929745        -0.442316        -3.151096
 H        -2.982642         1.364508        -3.471897
