19
Iteration:   394charge 0 multiplicity 1
 C         1.367194         0.110333        -0.389180
 C        -0.060436         0.039528        -0.067616
 C        -1.245795        -0.214795         0.152314
 C        -2.702432        -0.112610         0.304158
 O        -3.327628         0.315529         1.512998
 C        -3.133556         0.832499        -0.841587
 C        -4.534875         1.016395        -1.473089
 O        -4.055384         0.498572        -2.760158
 C        -2.715308         0.356563        -2.334034
 H         1.485447        -0.176401        -1.401892
 H         1.896020         1.151716        -0.221841
 H         2.000144        -0.463842         0.310769
 H        -3.130064        -1.086158         0.062364
 H        -3.205304        -0.354859         2.194404
 H        -2.699864         1.755391        -0.639324
 H        -5.472258         0.599481        -1.084537
 H        -4.718423         2.119849        -1.622620
 H        -2.464092        -0.729077        -2.556357
 H        -1.975893         0.981214        -2.812715
