19
Iteration:  3146charge 0 multiplicity 1
 C         1.321467        -0.167261        -0.032973
 C        -0.090891        -0.100589        -0.034022
 C        -1.283954        -0.276724        -0.290762
 C        -2.707691        -0.107281         0.022054
 O        -3.036102         0.059898         1.412206
 C        -3.370666         1.083131        -0.719801
 C        -4.657640         0.599091        -1.464146
 O        -3.903922         0.554249        -2.721550
 C        -2.745436         1.250243        -2.138695
 H         1.679576        -0.204127        -1.076450
 H         1.855111         0.706196         0.155123
 H         1.710345        -0.949921         0.496765
 H        -3.327177        -1.019492        -0.356460
 H        -2.431432        -0.542053         1.878569
 H        -3.584539         1.966337        -0.105414
 H        -5.157577        -0.278439        -1.046226
 H        -5.475325         1.304637        -1.594056
 H        -1.816143         0.658105        -2.469568
 H        -2.696405         2.318852        -2.556022
