19
Iteration:  1990
 C         1.132278        -0.108624        -0.745103
 C        -0.143538        -0.037268         0.037040
 C        -1.155567        -0.046588         0.659598
 C        -2.602655         0.010986         0.316245
 O        -3.626534         0.333441         1.315701
 C        -2.882146         0.865201        -0.859927
 C        -4.360407         0.793060        -1.293355
 O        -4.063343         0.530338        -2.721791
 C        -2.590407         0.464912        -2.417072
 H         1.752898        -0.815058        -0.201660
 H         1.014137        -0.236077        -1.788810
 H         1.750314         0.772224        -0.625128
 H        -2.716595        -1.116976        -0.086147
 H        -3.571425         1.275869         1.476330
 H        -2.508606         1.846087        -0.595712
 H        -4.892692        -0.050200        -0.794617
 H        -5.000809         1.699950        -1.206933
 H        -2.258709        -0.575138        -2.586746
 H        -2.019562         1.235641        -2.968027
