19
Iteration:   772
 C         1.435574         0.131253        -0.432213
 C         0.063012        -0.098924         0.125724
 C        -1.198683        -0.128057         0.369389
 C        -2.714469        -0.124045         0.158844
 O        -3.374504         0.039706         1.473414
 C        -3.173174         0.921776        -0.863685
 C        -4.631344         0.828461        -1.446081
 O        -4.037339         0.778783        -2.840991
 C        -2.739764         0.558808        -2.360086
 H         2.299540         0.018568         0.418676
 H         1.713814        -0.516858        -1.223598
 H         1.413887         1.142187        -0.897185
 H        -3.047449        -1.146306        -0.326003
 H        -3.155882        -0.793581         2.007171
 H        -2.951109         1.931487        -0.391205
 H        -5.269433        -0.052219        -1.204952
 H        -5.179816         1.795251        -1.362268
 H        -2.441019        -0.506232        -2.309825
 H        -1.999965         1.124197        -2.965391
