19
Iteration:  4991
 C         1.535769        -0.218053         0.352659
 C         0.077571        -0.095861         0.199352
 C        -1.051634        -0.021009        -0.221076
 C        -2.541573        -0.231851        -0.258315
 O        -3.009993        -0.396887         1.042853
 C        -3.291223         0.896314        -0.841964
 C        -4.740115         0.750620        -1.251654
 O        -4.388323         1.051054        -2.634760
 C        -3.022432         1.253871        -2.322918
 H         2.100787         0.380988        -0.425696
 H         2.103678         0.095894         1.274888
 H         1.888266        -1.203925         0.264072
 H        -2.622554        -1.237337        -0.901204
 H        -2.733509        -1.224300         1.435659
 H        -2.971824         1.752757        -0.215903
 H        -5.320330        -0.211543        -0.921613
 H        -5.323053         1.493519        -0.827977
 H        -2.431850         0.517347        -3.076467
 H        -2.630552         2.324886        -2.541012
