19
Iteration:   322charge 0 multiplicity 1
 C         1.175841        -0.018359        -0.803024
 C        -0.063498        -0.091951         0.110646
 C        -1.215055         0.043200         0.534040
 C        -2.686972        -0.030189         0.355714
 O        -3.516550         0.329382         1.459350
 C        -3.083985         0.879452        -0.807399
 C        -4.486461         0.773626        -1.493098
 O        -3.876111         0.470992        -2.821648
 C        -2.589356         0.530925        -2.264648
 H         0.534196         0.332479        -1.682169
 H         1.911518         0.652653        -0.579387
 H         1.688405        -0.968489        -0.986745
 H        -2.953435        -1.075720         0.099894
 H        -3.199115        -0.225593         2.225043
 H        -2.789211         1.933409        -0.481533
 H        -5.084141        -0.117683        -1.287001
 H        -5.156126         1.614676        -1.505107
 H        -1.940526        -0.310214        -2.465612
 H        -2.045025         1.479119        -2.633096
