19
Iteration:  3369
 C         1.348911         0.073043        -0.069119
 C        -0.051356        -0.157567        -0.109217
 C        -1.225837        -0.415217         0.155019
 C        -2.670828        -0.300339         0.165616
 O        -3.192430         0.005599         1.462684
 C        -3.106665         0.781851        -0.906406
 C        -4.658783         0.819263        -1.441789
 O        -4.143434         1.096755        -2.819690
 C        -2.781348         0.788782        -2.370001
 H         1.949836        -0.694301         0.542798
 H         1.823510         0.121831        -1.050771
 H         1.704701         1.012300         0.241425
 H        -3.026754        -1.181503        -0.209435
 H        -2.392610         0.445201         1.878570
 H        -2.937920         1.701377        -0.452235
 H        -5.103429        -0.166787        -1.283639
 H        -5.216902         1.672458        -1.019620
 H        -2.257454        -0.060051        -2.806634
 H        -2.137447         1.591644        -2.740103
