19
Iteration:  3599
 C         1.476288        -0.234548         0.736123
 C         0.140747        -0.027525         0.157623
 C        -1.025900        -0.138410        -0.220324
 C        -2.395170        -0.051635        -0.392875
 O        -3.042072        -0.293789         0.893344
 C        -2.991331         1.152403        -1.174505
 C        -4.550782         1.217842        -1.068682
 O        -4.676578         0.570245        -2.380419
 C        -3.256168         0.744701        -2.575216
 H         1.738241         0.551235         1.567916
 H         1.358423        -1.139917         1.327274
 H         2.141194        -0.275076        -0.045409
 H        -2.673945        -0.849298        -1.012576
 H        -2.600702         0.149442         1.665310
 H        -2.470668         2.070088        -0.971692
 H        -4.934641         0.618520        -0.181169
 H        -4.827215         2.234451        -1.231954
 H        -2.775691        -0.117302        -3.059700
 H        -2.950841         1.523696        -3.346309
