19
Iteration:  1679
 C         1.613448        -0.216321         0.889526
 C         0.254525        -0.087493         0.272420
 C        -0.893077        -0.024575        -0.148514
 C        -2.360470        -0.006832        -0.341850
 O        -3.001999         0.038368         0.933946
 C        -3.030045         1.046386        -1.293311
 C        -4.600364         1.104902        -1.117341
 O        -4.865316         0.578935        -2.517943
 C        -3.417404         0.463873        -2.678787
 H         2.281149        -0.610827         0.168590
 H         2.040295         0.796121         1.134066
 H         1.730930        -0.895473         1.739399
 H        -2.596508        -1.095382        -0.657597
 H        -2.604026         0.674858         1.599081
 H        -2.517875         2.033271        -1.438504
 H        -4.969275         0.359703        -0.382881
 H        -4.937208         2.197595        -0.844381
 H        -3.055536        -0.500076        -2.888631
 H        -3.020944         0.958202        -3.608884
