19
Iteration:  4001
 C         1.395042        -0.299404        -0.140525
 C        -0.030350        -0.201734         0.005775
 C        -1.188139         0.090444         0.006963
 C        -2.588453        -0.139242         0.027686
 O        -3.164994        -0.128881         1.356117
 C        -3.363354         0.956740        -0.736220
 C        -4.627929         0.554784        -1.496472
 O        -3.990686         0.785170        -2.827665
 C        -2.888042         1.352702        -2.128992
 H         1.726916        -1.402960         0.024794
 H         1.675555         0.070423        -1.203852
 H         1.912684         0.161446         0.633114
 H        -2.654430        -1.169143        -0.483812
 H        -2.760717        -0.854755         1.904024
 H        -3.383358         1.785028         0.165421
 H        -4.964278        -0.436959        -1.398027
 H        -5.612639         1.081071        -1.298111
 H        -1.791137         1.110102        -2.471849
 H        -2.871552         2.545600        -2.312931
