19
Iteration:  1692
 C         1.607873        -0.323013         0.844267
 C         0.284556         0.017116         0.308195
 C        -0.839241         0.043013        -0.092266
 C        -2.349709         0.088415        -0.358126
 O        -2.923790        -0.002536         0.955065
 C        -3.128686         1.043865        -1.288292
 C        -4.681954         1.052741        -1.197355
 O        -4.827431         0.624691        -2.503771
 C        -3.395704         0.390895        -2.681211
 H         2.193518        -0.838622         0.172694
 H         2.253055         0.515208         1.275804
 H         1.270036        -0.893973         1.723749
 H        -2.643577        -0.821702        -0.859385
 H        -2.381824         0.620559         1.418004
 H        -2.659725         2.039429        -1.207363
 H        -5.178076         0.429151        -0.422417
 H        -5.226594         2.064778        -1.118690
 H        -3.264984        -0.646982        -2.615224
 H        -3.025734         0.978789        -3.547874
