19
Iteration:   779
 C         1.425095         0.066854        -0.428721
 C        -0.022511        -0.093109         0.084463
 C        -1.169488        -0.040082         0.381192
 C        -2.668956        -0.097161         0.196905
 O        -3.362740         0.030731         1.464800
 C        -3.133386         0.887884        -0.847917
 C        -4.639452         0.746104        -1.464636
 O        -4.010256         0.822776        -2.841046
 C        -2.759575         0.590189        -2.327707
 H         2.174985         0.154660         0.279428
 H         1.557999        -0.645013        -1.276625
 H         1.343599         1.068910        -0.869260
 H        -2.920153        -1.032218        -0.314503
 H        -3.467549        -0.769868         2.038978
 H        -2.975647         1.900588        -0.595305
 H        -5.194812        -0.209545        -1.367272
 H        -5.278766         1.653577        -1.276996
 H        -2.348590        -0.473426        -2.338794
 H        -2.012819         1.133696        -2.893388
