19
Iteration:   712
 C         1.265572         0.290420         0.140777
 C        -0.130254         0.005963        -0.153976
 C        -1.297138        -0.466597        -0.026998
 C        -2.698705        -0.243972         0.004336
 O        -3.146683         0.010163         1.328522
 C        -2.850412         0.928580        -0.978047
 C        -4.404685         1.227555        -1.282509
 O        -4.320485         0.448507        -2.573960
 C        -2.838698         0.502032        -2.434787
 H         1.619315        -0.047514         1.029929
 H         1.984382         0.022201        -0.724940
 H         1.374803         1.369587         0.270332
 H        -3.285921        -1.151716        -0.257971
 H        -2.745270         0.883011         1.531924
 H        -2.149036         1.701091        -0.723040
 H        -5.160165         0.819655        -0.568610
 H        -4.674300         2.298660        -1.520256
 H        -2.224020        -0.363050        -2.773393
 H        -2.532976         1.332599        -3.083911
