19
Iteration:  2379charge 0 multiplicity 1
 C         1.416792         0.315771         0.396242
 C         0.067510        -0.219782         0.166707
 C        -1.083093        -0.629415         0.056729
 C        -2.507153        -0.345861        -0.176126
 O        -3.028491         0.138415         1.114109
 C        -3.014606         0.728784        -1.104172
 C        -4.525085         1.031073        -1.159662
 O        -4.539357         1.027777        -2.591876
 C        -3.140934         0.606932        -2.701039
 H         1.858972         1.060800        -0.272586
 H         1.382433         0.929941         1.252854
 H         2.167126        -0.508621         0.484755
 H        -3.064274        -1.372533        -0.398236
 H        -2.501831        -0.120648         1.856201
 H        -2.484788         1.669399        -0.892568
 H        -5.103516         0.091713        -0.905796
 H        -4.857123         1.962054        -0.607436
 H        -3.079729        -0.400259        -2.891405
 H        -2.511269         1.336181        -3.258877
