19
Iteration:  4640charge 0 multiplicity 1
 C         1.464994         0.180587        -0.148520
 C        -0.001932        -0.056428        -0.052132
 C        -1.193143        -0.339722        -0.020023
 C        -2.695663        -0.392009        -0.008420
 O        -3.260553        -0.492504         1.305268
 C        -3.297964         0.785993        -0.758324
 C        -4.650931         0.732549        -1.459130
 O        -4.037833         1.266955        -2.718883
 C        -2.722997         1.217271        -2.048760
 H         2.021582        -0.665071         0.197731
 H         1.657895         0.294956        -1.197982
 H         1.900529         1.102502         0.357154
 H        -2.926158        -1.300733        -0.551165
 H        -3.065259        -1.395901         1.557506
 H        -3.418200         1.513043        -0.044433
 H        -5.191045        -0.419007        -1.737937
 H        -5.433022         1.361169        -0.942347
 H        -2.046980         0.438638        -2.495271
 H        -2.263898         2.301589        -2.104598
