19
Iteration:  4266
 C         1.580905         0.117145         0.617229
 C         0.170832        -0.039746         0.147172
 C        -1.008012        -0.390776        -0.086628
 C        -2.408096        -0.354223        -0.362236
 O        -3.211446        -0.573616         0.790225
 C        -2.973981         0.917762        -1.078157
 C        -4.451766         1.026542        -0.997394
 O        -4.663228         1.349502        -2.404957
 C        -3.329704         0.800664        -2.631685
 H         1.733396         1.125390         1.011276
 H         1.625589        -0.451466         1.551071
 H         2.278629        -0.242305        -0.274237
 H        -2.687112        -1.190525        -0.985932
 H        -2.547064        -0.420613         1.519506
 H        -2.287823         1.751821        -0.683137
 H        -4.907209         0.113454        -0.677122
 H        -4.876109         1.958695        -0.473158
 H        -3.281841        -0.260212        -2.761596
 H        -2.744290         1.430373        -3.230232
