19
Iteration:  2331charge 0 multiplicity 1
 C         1.530775         0.068526         0.570040
 C         0.172604        -0.201737         0.222164
 C        -1.006334        -0.214347        -0.057938
 C        -2.467543        -0.283656        -0.280893
 O        -3.212436         0.091758         0.965619
 C        -2.902718         0.874392        -1.199402
 C        -4.476838         1.057584        -1.037147
 O        -4.674907         0.857123        -2.474283
 C        -3.227799         0.531754        -2.716763
 H         1.859907         1.072618         0.148837
 H         1.717571         0.221030         1.634747
 H         2.182300        -0.639475         0.134341
 H        -2.831015        -1.279218        -0.507820
 H        -2.805941        -0.435677         1.709647
 H        -2.371218         1.834928        -1.040075
 H        -5.015470         0.373406        -0.359708
 H        -4.815622         2.093874        -0.896301
 H        -3.110961        -0.564179        -2.891865
 H        -2.802386         1.308974        -3.329227
