19
Iteration:  4128
 C         1.557487        -0.019258         0.429452
 C         0.156355        -0.129647         0.128324
 C        -1.016186        -0.340622        -0.183120
 C        -2.528978        -0.260870        -0.312157
 O        -3.242428        -0.440023         0.930672
 C        -3.035073         1.083917        -0.883153
 C        -4.607491         1.124194        -1.062924
 O        -4.533907         0.773789        -2.536067
 C        -3.065486         1.125047        -2.467820
 H         1.791839        -0.201591         1.501596
 H         2.187277        -0.805893         0.005591
 H         1.990572         0.920197         0.052893
 H        -2.751699        -1.060251        -0.965413
 H        -2.752030        -0.850298         1.650849
 H        -2.579300         1.953453        -0.418846
 H        -5.254202         0.221194        -0.683528
 H        -5.046761         2.137727        -1.006162
 H        -2.478769         0.336856        -2.914795
 H        -2.937151         2.158843        -2.854203
