19
Iteration:  1365charge 0 multiplicity 1
 C         1.338706        -0.333857        -0.193683
 C        -0.121658        -0.372795        -0.128425
 C        -1.319591        -0.016445        -0.146541
 C        -2.776337        -0.082528         0.208923
 O        -2.941752         0.361138         1.525198
 C        -3.586908         0.780065        -0.719712
 C        -4.375025         0.072888        -1.775094
 O        -3.724376         0.826543        -2.854200
 C        -3.046975         1.594110        -1.923670
 H         1.711547         0.524811        -0.814973
 H         1.603141        -0.181036         0.786889
 H         1.657920        -1.364440        -0.406437
 H        -3.025281        -1.147156         0.091258
 H        -2.171918        -0.023261         1.954888
 H        -4.240324         1.190639         0.099591
 H        -4.042021        -1.028864        -1.884817
 H        -5.496053         0.331318        -1.889400
 H        -1.964061         1.564201        -2.147437
 H        -3.418065         2.606399        -1.914628
