19
Iteration:  1726charge 0 multiplicity 1
 C         1.416822        -0.507240         0.717478
 C         0.216093         0.117886         0.291149
 C        -0.861510         0.502445        -0.191702
 C        -2.325078         0.102454        -0.225171
 O        -2.870977         0.010097         1.122045
 C        -3.096040         0.882621        -1.207526
 C        -4.641435         0.922229        -1.240250
 O        -4.799780         0.681696        -2.612787
 C        -3.354155         0.374818        -2.664310
 H         1.720943        -1.331651         0.105122
 H         2.306711         0.103724         1.014550
 H         1.111301        -1.047833         1.634948
 H        -2.253057        -1.002741        -0.610037
 H        -2.202918         0.433179         1.665369
 H        -2.901973         1.950479        -1.246673
 H        -5.003372         0.106250        -0.561590
 H        -5.125277         1.920135        -1.037200
 H        -3.104730        -0.608714        -2.914834
 H        -2.791435         0.839154        -3.488557
