19
Iteration:  1824charge 0 multiplicity 1
 C         1.512234        -0.176297         0.205440
 C         0.063639        -0.390547         0.231745
 C        -1.079764        -0.108457         0.118944
 C        -2.517218        -0.034931         0.009539
 O        -2.980985         0.625348         1.247958
 C        -3.188207         0.879143        -1.072406
 C        -4.663292         0.625454        -1.329534
 O        -4.504027         0.569174        -2.744336
 C        -3.026243         0.753612        -2.606320
 H         2.008521        -1.062356        -0.056471
 H         1.863269         0.747040        -0.353862
 H         1.941076        -0.150510         1.225816
 H        -2.871537        -0.969636        -0.078832
 H        -2.876790         0.111530         2.033202
 H        -2.947030         1.923951        -0.891781
 H        -5.010543        -0.343455        -0.937332
 H        -5.269724         1.528872        -1.065807
 H        -2.331621        -0.051029        -3.038639
 H        -2.676543         1.743308        -3.112107
