19
Iteration:   958
 C         1.188388        -0.193482        -0.151376
 C        -0.292774        -0.221664        -0.352398
 C        -1.449112        -0.346733        -0.229780
 C        -2.798180        -0.059243         0.265478
 O        -2.552790         0.679934         1.528442
 C        -3.788689         0.654563        -0.698055
 C        -4.346317        -0.112127        -1.983340
 O        -3.489702         0.727676        -2.840897
 C        -3.075302         1.610656        -1.649588
 H         1.662879         0.390350         0.750931
 H         1.467075        -1.200688         0.023040
 H         1.742004        -0.055483        -1.094144
 H        -3.288278        -1.016270         0.490674
 H        -3.178642         0.339835         2.205411
 H        -4.566934         1.022156         0.015147
 H        -4.123117        -1.164213        -2.170749
 H        -5.494573         0.101744        -2.040874
 H        -1.982971         1.587346        -1.425081
 H        -3.487927         2.664466        -1.701950
