19
Iteration:  3247charge 0 multiplicity 1
 C         1.120505        -0.125863        -0.641925
 C        -0.165650         0.031988        -0.020515
 C        -1.361309        -0.042731         0.222868
 C        -2.774496        -0.188046         0.183092
 O        -3.346393        -0.082377         1.487108
 C        -3.307902         0.979107        -0.698369
 C        -4.408439         0.533697        -1.544363
 O        -3.754528         0.800296        -2.763664
 C        -2.500350         1.029712        -2.067324
 H         1.105148        -1.230575        -1.174221
 H         1.539790         0.518867        -1.407142
 H         1.916505        -0.220173         0.009271
 H        -3.197074        -1.266471        -0.260093
 H        -2.697696         0.371664         2.069792
 H        -3.239269         1.858732        -0.134124
 H        -4.622546        -0.540670        -1.431679
 H        -5.277850         1.174111        -1.495560
 H        -1.561882         0.264941        -2.219312
 H        -2.289218         2.130160        -2.245134
