19
Iteration:   820charge 0 multiplicity 1
 C         1.321617        -0.205361        -0.442668
 C        -0.077672         0.198151        -0.164660
 C        -1.203392         0.136916         0.299420
 C        -2.642776        -0.136046         0.364504
 O        -3.419601         0.163177         1.482826
 C        -3.175981         0.763992        -0.857657
 C        -4.518087         0.289124        -1.568551
 O        -3.967241         0.977490        -2.703187
 C        -2.651075         0.824348        -2.214653
 H         2.083632        -0.230565         0.332520
 H         1.367028        -1.296208        -0.969854
 H         1.631991         0.363474        -1.351074
 H        -2.765706        -1.211405         0.115552
 H        -4.032933        -0.537528         1.545915
 H        -3.270215         1.836739        -0.542032
 H        -4.629615        -0.777437        -1.797476
 H        -5.387811         0.757781        -1.208062
 H        -2.198820        -0.078755        -2.651620
 H        -1.948643         1.655840        -2.442812
