19
Iteration:  1090charge 0 multiplicity 1
 C         0.901272        -0.822510        -0.977845
 C        -0.302641        -0.359693        -0.250881
 C        -1.363551        -0.008689         0.185263
 C        -2.830636         0.035681         0.430006
 O        -3.117473         1.148238         1.424798
 C        -3.769767         0.252303        -0.705299
 C        -3.198275        -0.297613        -2.040182
 O        -3.248231         1.091466        -2.639404
 C        -3.564594         1.663825        -1.303804
 H         1.827458        -0.183832        -1.146654
 H         1.209310        -1.767280        -0.615164
 H         0.679196        -0.901946        -2.037132
 H        -3.092628        -0.950329         0.940419
 H        -3.959511         1.036386         1.942971
 H        -4.757349        -0.151568        -0.356186
 H        -2.274681        -0.748642        -1.935217
 H        -3.864083        -0.947338        -2.605990
 H        -2.632854         2.122568        -0.985704
 H        -4.424015         2.304190        -1.326488
