19
Iteration:  4762charge 0 multiplicity 1
 C         1.490965         0.126214         0.332511
 C         0.093945        -0.200501         0.180640
 C        -1.105646        -0.232801        -0.073946
 C        -2.486289        -0.432356        -0.282150
 O        -3.206857        -0.523214         1.011142
 C        -3.098659         0.835644        -0.979343
 C        -4.525038         0.907129        -1.111018
 O        -4.517359         1.314629        -2.507583
 C        -3.020178         1.047497        -2.501269
 H         1.835150         0.327715         1.385162
 H         2.169433        -0.670312        -0.091129
 H         1.645576         1.097090        -0.144122
 H        -2.788703        -1.435849        -0.964602
 H        -2.510187        -0.695791         1.650117
 H        -2.551334         1.608043        -0.521405
 H        -5.062199         0.001790        -1.142067
 H        -5.137352         1.660847        -0.456909
 H        -2.552374         0.162275        -2.953626
 H        -2.376548         1.828590        -3.131743
