19
Iteration:   759charge 0 multiplicity 1
 C         1.392214         0.213253        -0.347179
 C         0.052826        -0.084858         0.140291
 C        -1.165126        -0.257572         0.213263
 C        -2.703290        -0.189378         0.177696
 O        -3.364233         0.038492         1.420260
 C        -3.158185         0.922609        -0.874782
 C        -4.556888         1.004318        -1.484198
 O        -4.167981         0.690747        -2.812371
 C        -2.709149         0.530651        -2.291373
 H         2.177904         0.067657         0.503101
 H         1.571103        -0.502184        -1.125382
 H         1.594248         1.260973        -0.658752
 H        -3.023307        -1.275083        -0.168025
 H        -2.869322        -0.448786         2.083491
 H        -2.770345         1.902802        -0.611505
 H        -5.180288         0.180218        -1.034609
 H        -5.158076         1.971814        -1.380909
 H        -2.406753        -0.523089        -2.524512
 H        -1.967565         1.186052        -2.731456
