19
Iteration:  2806charge 0 multiplicity 1
 C         1.643044         0.061321         0.361024
 C         0.177763        -0.027457         0.092879
 C        -1.054468        -0.033916         0.080016
 C        -2.487325        -0.377041        -0.180432
 O        -3.244008        -0.405695         1.078289
 C        -3.100080         0.706944        -1.066455
 C        -4.547160         1.125334        -1.146089
 O        -4.523452         1.230136        -2.607599
 C        -3.213425         0.596041        -2.569102
 H         1.708785         0.513451         1.403359
 H         2.076001        -0.895457         0.411700
 H         2.164280         0.851440        -0.189672
 H        -2.524089        -1.403027        -0.713673
 H        -2.589259        -0.529429         1.826063
 H        -2.561013         1.710371        -1.014905
 H        -5.258765         0.306543        -0.926967
 H        -4.860384         2.058930        -0.513169
 H        -3.329036        -0.414401        -3.091255
 H        -2.293803         1.156945        -3.116527
