19
Iteration:  4911
 C         1.524407        -0.218949         0.654162
 C         0.162830        -0.196048         0.124305
 C        -1.008775        -0.072607        -0.290748
 C        -2.490871        -0.206650        -0.485968
 O        -3.096790        -0.471896         0.766015
 C        -3.142700         1.100227        -0.949629
 C        -4.636901         0.995745        -0.988877
 O        -4.515801         0.687919        -2.414616
 C        -3.145945         1.312097        -2.421700
 H         1.893250         0.778146         0.762100
 H         1.562678        -0.608249         1.639957
 H         2.300914        -0.838806         0.021733
 H        -2.689543        -1.006198        -1.323210
 H        -2.387037        -0.570983         1.414326
 H        -2.595002         1.895379        -0.275131
 H        -5.168870         0.183310        -0.406504
 H        -5.048768         2.069818        -0.783847
 H        -2.447270         0.817781        -3.185506
 H        -3.483418         2.397380        -2.726012
