19
Iteration:  4104charge 0 multiplicity 1
 C         1.548560        -0.126437         0.286653
 C         0.140777        -0.185678         0.214947
 C        -1.079795        -0.203643        -0.018900
 C        -2.581215        -0.183549        -0.324561
 O        -3.153165        -0.440338         1.009751
 C        -3.170225         1.115642        -0.884416
 C        -4.640136         1.010996        -1.126772
 O        -4.429863         0.721439        -2.607021
 C        -3.018436         1.226895        -2.457147
 H         1.927521        -0.490884         1.187161
 H         2.084019        -0.715357        -0.398059
 H         1.874073         0.945351         0.109135
 H        -2.783026        -0.955019        -0.955832
 H        -2.527222        -0.926615         1.546371
 H        -2.736746         2.062398        -0.397922
 H        -5.191628         0.122526        -0.622276
 H        -5.178944         1.971672        -1.074166
 H        -2.370658         0.454793        -2.906074
 H        -2.884776         2.325762        -2.740307
