19
Iteration:  2424charge 0 multiplicity 1
 C         1.379475         0.210143         0.265625
 C        -0.000556        -0.099862         0.042729
 C        -1.187417        -0.159658        -0.207356
 C        -2.653935        -0.300335         0.015829
 O        -2.940795        -0.102259         1.376265
 C        -3.163131         0.732485        -0.949684
 C        -4.661758         0.988217        -1.323678
 O        -4.226362         1.158200        -2.754415
 C        -3.024019         0.390936        -2.465909
 H         1.801161         0.449516        -0.688508
 H         1.421517         1.139017         0.831146
 H         1.985579        -0.662902         0.680207
 H        -2.910606        -1.333480        -0.438769
 H        -2.252671        -0.499410         1.917710
 H        -2.645476         1.678079        -0.770088
 H        -5.293955         0.093109        -0.998265
 H        -4.987897         1.980382        -0.934177
 H        -3.218679        -0.630605        -2.654394
 H        -2.200057         0.914303        -2.954196
