19
Iteration:   211charge 0 multiplicity 1
 C         1.339932        -0.311423        -0.099750
 C        -0.033902        -0.074934        -0.035790
 C        -1.263855        -0.034115        -0.098944
 C        -2.654477        -0.002685         0.216851
 O        -2.898070         0.649659         1.550298
 C        -3.483716         0.800393        -0.765708
 C        -4.627923         0.223669        -1.689390
 O        -3.999560         0.606924        -2.917811
 C        -2.899766         0.987864        -2.159936
 H         1.809498         0.746191        -0.404414
 H         1.778701        -0.517633         0.847767
 H         1.708624        -1.037181        -0.855700
 H        -3.044945        -0.994374         0.375615
 H        -2.336598         0.167908         2.137039
 H        -3.881351         1.653132        -0.234395
 H        -4.848924        -0.835268        -1.617816
 H        -5.532441         0.713178        -1.591641
 H        -2.169552         0.200901        -2.268449
 H        -2.340222         1.909659        -2.444368
