19
Iteration:  4789charge 0 multiplicity 1
 C         1.528311         0.022328         0.393493
 C         0.120546        -0.157703         0.251343
 C        -1.050066        -0.281393        -0.052749
 C        -2.450576        -0.259647        -0.319447
 O        -3.180698        -0.652697         0.870557
 C        -3.060772         0.967926        -0.989107
 C        -4.547944         0.985682        -1.013411
 O        -4.554389         1.168762        -2.501827
 C        -3.146132         1.022451        -2.534890
 H         1.766378         0.457485         1.365001
 H         2.169918        -0.833459         0.299703
 H         1.848067         0.860026        -0.283673
 H        -2.725940        -1.057402        -1.073635
 H        -2.925656        -0.085706         1.600625
 H        -2.591555         1.988100        -0.676888
 H        -5.045270         0.022030        -0.856919
 H        -4.929973         1.840240        -0.604059
 H        -2.580199         0.193874        -3.042947
 H        -2.669235         1.905000        -2.980765
