19
Iteration:  1672
 C         1.595034        -0.180345         0.864465
 C         0.227800        -0.147904         0.276602
 C        -0.902376        -0.029081        -0.180363
 C        -2.347577        -0.069509        -0.313717
 O        -3.064693         0.054372         0.956724
 C        -2.993182         0.984192        -1.338462
 C        -4.525444         1.130462        -1.079700
 O        -4.847107         0.584801        -2.493742
 C        -3.415005         0.494771        -2.716479
 H         2.395091        -0.334639         0.094403
 H         1.908793         0.874420         1.112079
 H         1.705336        -0.689578         1.837043
 H        -2.625737        -0.989642        -0.683703
 H        -2.534633         0.733784         1.436301
 H        -2.558669         1.974833        -1.285438
 H        -4.869153         0.506441        -0.263569
 H        -5.049862         2.036698        -0.929324
 H        -3.021967        -0.569871        -2.875004
 H        -3.157606         1.188477        -3.536537
