19
Iteration:  1793charge 0 multiplicity 1
 C         1.720957        -0.426316         0.450428
 C         0.235457        -0.113990         0.210257
 C        -0.967622         0.047460        -0.012851
 C        -2.456401         0.102786        -0.081912
 O        -3.147367         0.468894         1.185115
 C        -3.252734         0.961531        -1.136854
 C        -4.689169         0.596195        -1.287805
 O        -4.635241         0.672771        -2.704002
 C        -3.141261         0.606191        -2.602820
 H         2.045574        -1.346486        -0.103451
 H         2.460655         0.269760         0.139014
 H         1.851473        -0.583847         1.532287
 H        -2.758788        -1.056229        -0.316581
 H        -2.510438         0.411525         1.957974
 H        -3.038170         2.011098        -0.990807
 H        -4.955311        -0.443707        -0.858766
 H        -5.364132         1.330843        -0.879672
 H        -2.674439        -0.337514        -2.928052
 H        -2.651210         1.369681        -3.244457
