19
Iteration:  2524
 C         1.413621        -0.005278        -0.417679
 C         0.070451        -0.160562         0.257091
 C        -1.144261        -0.206618         0.396374
 C        -2.603699        -0.130402         0.109015
 O        -3.442141         0.007627         1.250347
 C        -3.115625         0.968886        -0.852528
 C        -4.549947         0.536288        -1.371849
 O        -4.157996         0.822418        -2.764928
 C        -2.784036         1.046504        -2.345468
 H         1.425837        -0.537341        -1.317504
 H         1.442648         0.997278        -0.857085
 H         2.281985        -0.356399         0.160775
 H        -2.744292        -1.040838        -0.400343
 H        -3.092998        -0.618502         1.941504
 H        -3.216548         1.884198        -0.293068
 H        -4.840500        -0.563235        -1.363389
 H        -5.410635         1.121603        -0.971743
 H        -1.883330         0.336102        -2.769353
 H        -2.514388         2.072257        -2.708966
