19
Iteration:   446charge 0 multiplicity 1
 C         1.435330         0.159616         0.081937
 C        -0.004719        -0.310755         0.204936
 C        -1.211466        -0.347837         0.018969
 C        -2.603657        -0.060986        -0.014765
 O        -3.057133         0.470438         1.376651
 C        -3.091856         0.870011        -1.081564
 C        -4.611091         0.822220        -1.325227
 O        -4.380575         0.587653        -2.729537
 C        -2.894376         0.487795        -2.461842
 H         1.880216        -0.352280        -0.816258
 H         1.352615         1.287842        -0.159097
 H         2.096987        -0.027533         0.951941
 H        -3.251493        -0.971664        -0.117282
 H        -2.198590         0.549039         1.839955
 H        -2.618060         1.878084        -0.871638
 H        -4.993656        -0.078643        -0.815106
 H        -5.312509         1.656686        -1.072392
 H        -2.534851        -0.480835        -2.859363
 H        -2.353593         1.323656        -3.026022
