19
Iteration:  4126
 C         1.580223        -0.027768         0.427683
 C         0.127106        -0.132557         0.132058
 C        -1.013708        -0.343584        -0.171419
 C        -2.515588        -0.260219        -0.292963
 O        -3.240241        -0.439303         0.933341
 C        -3.036642         1.088179        -0.902149
 C        -4.626922         1.118607        -1.085825
 O        -4.513544         0.775805        -2.523888
 C        -3.065924         1.126862        -2.472268
 H         1.815282        -0.245241         1.410165
 H         2.147145        -0.796437        -0.006763
 H         1.983098         0.953473         0.034225
 H        -2.763751        -0.987431        -0.974595
 H        -2.687375        -0.870277         1.635037
 H        -2.592214         2.021828        -0.325345
 H        -5.301184         0.244947        -0.722555
 H        -5.133411         2.094555        -0.985561
 H        -2.476605         0.302954        -2.914938
 H        -3.035151         2.206216        -2.856690
