19
Iteration:  1380
 C         1.337033        -0.391126        -0.193684
 C        -0.082207        -0.181328        -0.104612
 C        -1.307140        -0.021435        -0.114926
 C        -2.691610        -0.076131         0.191852
 O        -2.990790         0.260369         1.640801
 C        -3.642939         0.829147        -0.730432
 C        -4.462799         0.065001        -1.858648
 O        -3.816413         0.807039        -2.920883
 C        -2.918303         1.552411        -1.899245
 H         1.691285         0.300587        -1.033823
 H         2.018799        -0.156967         0.733189
 H         1.700830        -1.383650        -0.571700
 H        -3.088336        -1.046216         0.023011
 H        -2.180079         0.086684         2.210438
 H        -4.110698         1.639764        -0.237678
 H        -4.199887        -0.992817        -1.925834
 H        -5.566303         0.286578        -1.722740
 H        -1.857250         1.374008        -2.032062
 H        -2.981947         2.663900        -1.969121
