19
Iteration:  3793charge 0 multiplicity 1
 C         1.366199        -0.123253        -0.387897
 C        -0.054302        -0.078478         0.005756
 C        -1.227176        -0.037633         0.250678
 C        -2.671167        -0.226708         0.182435
 O        -3.389087        -0.063895         1.379622
 C        -3.208807         0.806988        -0.809137
 C        -4.557607         0.571694        -1.548203
 O        -3.979294         1.125210        -2.743912
 C        -2.708990         0.906369        -2.196020
 H         1.407435         0.359800        -1.348215
 H         2.031114         0.483687         0.240526
 H         1.861128        -1.215403        -0.194336
 H        -2.861228        -1.175346        -0.205328
 H        -2.640208        -0.089082         2.018491
 H        -3.246851         1.763493        -0.200635
 H        -4.779691        -0.463684        -1.637749
 H        -5.473120         0.997840        -1.137136
 H        -2.252385         0.018406        -2.596778
 H        -2.126129         1.683171        -2.598802
