19
Iteration:  1547
 C         1.381585         0.361192         0.079688
 C        -0.004953        -0.072300        -0.077698
 C        -1.202824        -0.522163         0.085636
 C        -2.699730        -0.333402         0.033663
 O        -3.287108        -0.200883         1.302176
 C        -2.943925         0.933918        -0.911875
 C        -4.425764         1.334697        -1.361433
 O        -4.320900         0.775105        -2.674194
 C        -2.920913         0.457232        -2.410610
 H         1.755711         0.522934        -0.916500
 H         1.617495         1.362661         0.718563
 H         2.144380        -0.382525         0.427215
 H        -3.233668        -1.168923        -0.328192
 H        -2.655697         0.347106         1.862114
 H        -2.188856         1.688497        -0.619026
 H        -5.233101         0.904583        -0.747217
 H        -4.374305         2.392281        -1.582678
 H        -2.787703        -0.618237        -2.432298
 H        -2.243856         0.992522        -3.201408
