19
Iteration:  4180charge 0 multiplicity 1
 C         1.434951         0.129825         0.613737
 C         0.085807        -0.135126         0.056108
 C        -1.047084        -0.394343        -0.221071
 C        -2.548955        -0.295669        -0.415254
 O        -3.130629        -0.548905         0.920875
 C        -2.914469         0.986401        -1.044843
 C        -4.428357         1.215591        -0.962439
 O        -4.628084         1.009268        -2.422726
 C        -3.180064         0.910514        -2.525251
 H         1.377390         0.623946         1.526968
 H         2.053242        -0.704484         0.746969
 H         2.107707         0.804170        -0.020731
 H        -2.750312        -1.175497        -1.062407
 H        -2.655319        -1.254150         1.386845
 H        -2.377002         1.963167        -0.627837
 H        -5.022153         0.508565        -0.394204
 H        -4.686696         2.229563        -0.822133
 H        -2.666622         0.034474        -3.018188
 H        -2.789535         1.743889        -3.231882
