19
Iteration:  2986
 C         1.689767        -0.034348         0.568643
 C         0.242214        -0.061152         0.147438
 C        -0.984545        -0.128742         0.044478
 C        -2.385408        -0.265696        -0.294575
 O        -3.178207        -0.372961         0.950288
 C        -3.062284         1.017499        -1.090578
 C        -4.642996         1.205865        -1.127121
 O        -4.663048         0.908898        -2.531731
 C        -3.274674         0.626854        -2.633918
 H         2.179594         0.843912         0.476739
 H         1.812020        -0.394791         1.628904
 H         2.131945        -0.931573         0.030149
 H        -2.723602        -1.202026        -0.856681
 H        -2.806133         0.259380         1.554674
 H        -2.568665         1.945882        -0.915572
 H        -5.294889         0.575165        -0.517446
 H        -4.918914         2.173116        -0.763436
 H        -3.291233        -0.397045        -2.930785
 H        -2.766985         1.380183        -3.310799
