19
Iteration:  2738
 C         1.581878        -0.173099         0.032108
 C         0.159959         0.004497         0.226248
 C        -1.050827        -0.045614         0.112603
 C        -2.540374        -0.105873        -0.041257
 O        -3.224107        -0.378585         1.178367
 C        -3.213857         0.919556        -0.904895
 C        -4.674426         0.818449        -1.328487
 O        -4.413440         0.957807        -2.716847
 C        -2.974191         0.927648        -2.442929
 H         1.945279        -0.598025         1.039188
 H         1.831055        -0.922947        -0.711021
 H         2.102146         0.708285        -0.108577
 H        -2.612062        -1.140502        -0.515624
 H        -3.033811         0.333704         1.803854
 H        -2.994401         1.953718        -0.455538
 H        -5.144531        -0.177588        -1.249648
 H        -5.306113         1.638597        -0.861003
 H        -2.333711         0.087862        -2.875869
 H        -2.431978         1.857361        -2.817000
