19
Iteration:  4756charge 0 multiplicity 1
 C         1.517921         0.136771         0.323820
 C         0.087500        -0.165603         0.156622
 C        -1.084782        -0.295103        -0.086753
 C        -2.495817        -0.445165        -0.252714
 O        -3.211045        -0.495071         1.030140
 C        -3.085788         0.817904        -0.990076
 C        -4.562845         0.896832        -1.123514
 O        -4.469429         1.357138        -2.542972
 C        -3.027639         1.016148        -2.485839
 H         1.691244         0.235760         1.400364
 H         2.189212        -0.557720        -0.179865
 H         1.652705         1.131905        -0.143373
 H        -2.731574        -1.251876        -0.868950
 H        -2.571741        -0.870122         1.661298
 H        -2.730164         1.676983        -0.308735
 H        -5.224769        -0.083381        -1.070974
 H        -5.089212         1.552184        -0.504508
 H        -2.692456         0.085395        -3.024824
 H        -2.509580         1.904777        -2.786041
