19
Iteration:  1139charge 0 multiplicity 1
 C         0.622641        -0.927679        -1.150430
 C        -0.444151        -0.318015        -0.316972
 C        -1.334826         0.058979         0.388463
 C        -2.792223         0.125744         0.685175
 O        -3.350069         1.141834         1.558768
 C        -3.435248         0.215346        -0.772021
 C        -2.925958        -0.206166        -2.191140
 O        -3.291972         1.067377        -2.736621
 C        -3.547625         1.578014        -1.335915
 H         1.404874        -0.254788        -1.407845
 H         1.088833        -1.785597        -0.610069
 H         0.432987        -1.170822        -2.213052
 H        -3.109998        -0.766879         1.217548
 H        -2.955361         0.996459         2.439423
 H        -4.426202        -0.200945        -0.631108
 H        -1.753466        -0.398096        -2.278864
 H        -3.458396        -1.152766        -2.480182
 H        -2.747022         2.304414        -1.046178
 H        -4.605910         1.975511        -1.339581
