19
Iteration:  4948charge 0 multiplicity 1
 C         1.570738        -0.218972         0.596926
 C         0.188253        -0.220808        -0.025273
 C        -1.011336        -0.190881        -0.196847
 C        -2.508624        -0.097098        -0.323765
 O        -3.103619        -0.458213         0.943426
 C        -3.123957         1.124000        -0.947334
 C        -4.649029         0.862675        -1.072529
 O        -4.510203         0.790624        -2.529103
 C        -3.165471         1.376396        -2.472173
 H         2.062019         0.761827         0.285142
 H         1.345616        -0.170440         1.721957
 H         2.238363        -0.993504         0.325241
 H        -2.875527        -0.891297        -0.995959
 H        -2.521141        -1.131934         1.291055
 H        -3.085798         2.015103        -0.342176
 H        -4.921018        -0.349522        -0.784166
 H        -5.326185         1.585136        -0.683071
 H        -2.299063         0.933003        -3.043657
 H        -3.119894         2.447182        -2.651733
