19
Iteration:  4681
 C         1.412041         0.177183         0.059093
 C        -0.026786        -0.109901        -0.047202
 C        -1.219979        -0.224624        -0.105931
 C        -2.653110        -0.401945        -0.061591
 O        -3.047553        -0.516153         1.328376
 C        -3.262198         0.754559        -0.807683
 C        -4.651672         0.696992        -1.395964
 O        -4.159567         1.466670        -2.645932
 C        -2.774682         1.046269        -2.269236
 H         1.786306        -0.447986         0.848361
 H         1.943346         0.038723        -0.863313
 H         1.516836         1.308842         0.312158
 H        -3.049660        -1.324409        -0.714754
 H        -3.441510        -1.417072         1.392478
 H        -2.999260         1.686937        -0.206254
 H        -5.035909        -0.231640        -1.654025
 H        -5.318824         1.326872        -0.903992
 H        -2.679778         0.074681        -2.767703
 H        -1.996424         1.682050        -2.341798
