19
Iteration:  1717
 C         1.473122        -0.481657         0.799333
 C         0.260616         0.109683         0.303364
 C        -0.836883         0.419337        -0.190090
 C        -2.316676         0.079682        -0.246935
 O        -2.871122        -0.011983         1.079076
 C        -3.130003         0.952660        -1.246856
 C        -4.670082         0.984264        -1.211310
 O        -4.841794         0.638083        -2.639167
 C        -3.356102         0.383551        -2.657822
 H         1.816151        -1.142282        -0.099207
 H         2.347741         0.106646         1.012008
 H         1.139087        -1.012934         1.714615
 H        -2.447681        -0.830041        -0.647632
 H        -2.227797         0.448340         1.629667
 H        -2.529969         1.832609        -1.214621
 H        -5.229973         0.252027        -0.620726
 H        -5.126905         1.874008        -0.908393
 H        -3.288856        -0.723526        -2.656160
 H        -2.852147         0.976627        -3.381983
