19
Iteration:  3512charge 0 multiplicity 1
 C         1.622887        -0.219144         0.644980
 C         0.139987        -0.088536         0.474015
 C        -0.947143        -0.158001        -0.056012
 C        -2.365493        -0.043251        -0.371043
 O        -3.111118        -0.201087         0.865843
 C        -2.977995         1.114322        -1.265266
 C        -4.505431         1.129448        -1.056909
 O        -4.788617         0.727781        -2.436934
 C        -3.371694         0.672431        -2.735408
 H         1.977296        -0.073758         1.773266
 H         2.027161        -1.180109         0.272067
 H         2.216363         0.406518         0.006452
 H        -2.671117        -1.103801        -0.848565
 H        -2.561255         0.170465         1.582190
 H        -2.531305         2.049125        -1.094242
 H        -4.771502         0.361836        -0.291176
 H        -5.161332         2.008536        -0.884154
 H        -2.966635        -0.264886        -3.077689
 H        -3.031700         1.465064        -3.444928
