19
Iteration:  3211
 C         1.409915        -0.061723        -0.528323
 C        -0.084415        -0.252825        -0.214111
 C        -1.236197        -0.187510         0.197771
 C        -2.803097        -0.148671         0.292917
 O        -3.384070         0.002364         1.613873
 C        -3.359276         0.985671        -0.669266
 C        -4.590954         0.615120        -1.701820
 O        -3.758591         0.654455        -2.856315
 C        -2.654192         1.186457        -2.051683
 H         1.646800        -0.807526        -1.383334
 H         1.480975         1.008326        -0.843263
 H         2.110199        -0.312700         0.379234
 H        -2.952641        -1.218174        -0.173117
 H        -2.618855         0.131269         2.253813
 H        -3.623106         1.902389        -0.062012
 H        -5.228634        -0.266455        -1.491013
 H        -5.282285         1.477618        -1.782353
 H        -1.603601         0.766405        -2.234045
 H        -2.536828         2.318606        -2.206920
