19
Iteration:  1159charge 0 multiplicity 1
 C         0.591587        -0.858907        -1.115180
 C        -0.347341        -0.364333        -0.232579
 C        -1.334883         0.073285         0.419698
 C        -2.779429         0.058039         0.566047
 O        -3.274502         1.060768         1.523479
 C        -3.611719         0.248302        -0.728857
 C        -2.894659        -0.190255        -2.068547
 O        -3.300868         1.033579        -2.706184
 C        -3.590405         1.670517        -1.455386
 H         1.457305        -0.300030        -1.559730
 H         1.043744        -1.684518        -0.684201
 H         0.089551        -1.247345        -2.037961
 H        -3.114430        -0.976863         0.952094
 H        -2.386412         1.317870         1.917764
 H        -4.662488        -0.075629        -0.711442
 H        -1.810851        -0.295793        -1.917675
 H        -3.212006        -1.067527        -2.669688
 H        -2.728930         2.130159        -0.985451
 H        -4.559122         2.253611        -1.506455
