19
Iteration:     6
 C         1.499723        -0.090682         0.122667
 C         0.092131        -0.084993         0.058217
 C        -1.132736        -0.055970         0.002443
 C        -2.591768        -0.045868        -0.015349
 O        -3.162753         0.127994         1.322355
 C        -3.127581         0.997139        -0.985958
 C        -4.657948         0.863353        -1.281423
 O        -4.381946         0.481428        -2.682972
 C        -2.927512         0.670212        -2.507993
 H         1.761844        -0.284925         1.221581
 H         2.024418        -0.990700        -0.308215
 H         1.863406         0.895047        -0.216184
 H        -3.035276        -1.048238        -0.258528
 H        -2.679165         0.874785         1.731846
 H        -2.656844         1.961688        -0.711062
 H        -5.097170         0.005181        -0.697806
 H        -5.287543         1.772597        -1.406469
 H        -2.226353        -0.232866        -2.573740
 H        -2.524275         1.409255        -3.248400
