19
Iteration:  4528charge 0 multiplicity 1
 C         1.378720        -0.056224        -0.363196
 C        -0.063162         0.042062        -0.103978
 C        -1.281809         0.012110         0.135417
 C        -2.695612        -0.273417        -0.109477
 O        -3.306885        -0.754094         1.171210
 C        -3.387685         0.989583        -0.588299
 C        -4.595982         0.785934        -1.470474
 O        -3.762037         0.730384        -2.659280
 C        -2.732348         1.487421        -1.893688
 H         1.690277        -0.869388        -1.001755
 H         1.781280         0.774784        -0.914981
 H         1.898389        -0.286101         0.626564
 H        -2.723992        -1.035652        -0.792683
 H        -3.383290         0.074950         1.692586
 H        -3.555900         1.592730         0.245454
 H        -5.157176        -0.164036        -1.190739
 H        -5.275230         1.628541        -1.393441
 H        -1.640290         1.257791        -2.167254
 H        -2.701613         2.688416        -2.094086
