19
Iteration:  1792
 C         1.720304        -0.430200         0.455687
 C         0.248342        -0.108000         0.211576
 C        -0.974056         0.052358        -0.022340
 C        -2.451368         0.103208        -0.082400
 O        -3.150929         0.461741         1.185426
 C        -3.251186         0.965352        -1.146861
 C        -4.687986         0.591473        -1.286542
 O        -4.637793         0.677270        -2.701627
 C        -3.140214         0.599133        -2.600195
 H         1.990607        -1.321507        -0.092715
 H         2.509975         0.250396         0.148603
 H         1.821672        -0.605706         1.536789
 H        -2.735154        -1.014014        -0.307943
 H        -2.503064         0.417872         1.939771
 H        -3.045177         2.020827        -0.986160
 H        -4.957695        -0.417837        -0.832346
 H        -5.396939         1.332490        -0.868059
 H        -2.699620        -0.389977        -2.915029
 H        -2.656428         1.401064        -3.244667
