19
Iteration:  1185
 C         0.745079        -0.831894        -1.029102
 C        -0.275025        -0.359189        -0.095010
 C        -1.415329        -0.098433         0.205529
 C        -2.842353         0.053386         0.546793
 O        -3.180606         1.009077         1.568195
 C        -3.630613         0.337179        -0.694139
 C        -3.042990        -0.227403        -2.036116
 O        -3.312005         1.040442        -2.740056
 C        -3.601533         1.732260        -1.487064
 H         1.305220        -0.091623        -1.494136
 H         1.528282        -1.658700        -0.745218
 H         0.273595        -1.126591        -1.956893
 H        -3.214604        -0.895421         0.925786
 H        -2.536209         1.738406         1.319317
 H        -4.681188         0.131159        -0.559622
 H        -1.890602        -0.494007        -1.945975
 H        -3.486236        -1.069973        -2.625906
 H        -2.764725         2.394158        -1.141061
 H        -4.587896         2.204422        -1.457361
