19
Iteration:  2650
 C         1.364678        -0.160163        -0.045024
 C        -0.069168        -0.216129        -0.059747
 C        -1.264592        -0.084218        -0.157658
 C        -2.702698        -0.106204        -0.030875
 O        -3.011172        -0.099724         1.435193
 C        -3.400434         1.005743        -0.730925
 C        -4.697549         0.696544        -1.487273
 O        -3.884142         0.481478        -2.783628
 C        -2.856803         1.308137        -2.105350
 H         1.915184        -1.075300         0.322962
 H         1.766577         0.119002        -1.034371
 H         1.530989         0.741944         0.365629
 H        -3.165617        -0.973358        -0.475176
 H        -2.208194         0.118852         1.898932
 H        -3.419950         1.920742        -0.062996
 H        -5.160605        -0.263221        -1.316570
 H        -5.363691         1.585554        -1.479142
 H        -1.780175         1.076042        -2.410077
 H        -2.974381         2.455207        -2.356850
