19
Iteration:  3785charge 0 multiplicity 1
 C         1.325166        -0.128891        -0.322456
 C        -0.026894        -0.101429         0.022537
 C        -1.219226         0.054667         0.220051
 C        -2.655687        -0.251914         0.146409
 O        -3.346307        -0.095904         1.373565
 C        -3.189906         0.810170        -0.776877
 C        -4.615918         0.576643        -1.488200
 O        -4.029416         1.139208        -2.799256
 C        -2.683834         0.899526        -2.240542
 H         1.595436         0.220549        -1.294992
 H         1.921711         0.504117         0.339161
 H         1.750994        -1.112421        -0.507733
 H        -2.803373        -1.351700        -0.143117
 H        -2.777645        -0.108914         2.156747
 H        -3.227878         1.766645        -0.220958
 H        -4.845356        -0.478456        -1.485061
 H        -5.418100         1.241704        -1.288530
 H        -2.224476        -0.102140        -2.498382
 H        -1.881664         1.595202        -2.496863
