19
Iteration:  1214charge 0 multiplicity 1
 C         0.990977        -0.742748        -0.822728
 C        -0.366943        -0.464477        -0.291658
 C        -1.397348        -0.194951         0.271949
 C        -2.873259         0.079504         0.567178
 O        -3.033818         1.027829         1.627623
 C        -3.688917         0.328896        -0.743119
 C        -3.331835        -0.255829        -2.164350
 O        -3.312895         1.099556        -2.816534
 C        -3.548639         1.665069        -1.466942
 H         1.343279         0.266649        -1.234120
 H         1.659063        -1.283051        -0.225585
 H         1.007096        -1.157636        -1.878964
 H        -3.235570        -0.860828         1.100501
 H        -2.969926         1.915583         1.217088
 H        -4.715296         0.168647        -0.352727
 H        -2.371014        -0.784788        -2.165546
 H        -4.112317        -0.810402        -2.656507
 H        -2.735257         2.312531        -1.109333
 H        -4.414796         2.398433        -1.383572
