19
Iteration:  1784
 C         1.676556        -0.446569         0.503226
 C         0.269486        -0.029765         0.193263
 C        -0.910867         0.099275        -0.065084
 C        -2.434787         0.139166        -0.085016
 O        -3.158776         0.398838         1.171002
 C        -3.182093         0.970483        -1.162665
 C        -4.724120         0.604659        -1.232206
 O        -4.639934         0.694449        -2.699276
 C        -3.145391         0.557985        -2.631169
 H         1.655740        -1.479634        -0.096182
 H         2.499878         0.160970         0.293033
 H         1.683137        -0.805540         1.549898
 H        -2.712627        -1.037628        -0.337245
 H        -2.400388         0.460761         1.830574
 H        -3.111473         2.035526        -0.965265
 H        -4.946037        -0.432911        -0.774543
 H        -5.483349         1.223562        -0.867575
 H        -2.981808        -0.474594        -2.714650
 H        -2.728591         1.296187        -3.245922
