19
Iteration:  3208
 C         1.431556        -0.074714        -0.512664
 C        -0.072998        -0.260241        -0.226900
 C        -1.249881        -0.195953         0.179588
 C        -2.794661        -0.167467         0.298588
 O        -3.382548         0.007317         1.624704
 C        -3.317086         0.986615        -0.647893
 C        -4.621877         0.622794        -1.710322
 O        -3.765195         0.634397        -2.882997
 C        -2.669575         1.217628        -2.043200
 H         1.601769        -0.730307        -1.295636
 H         1.395131         1.043556        -0.700069
 H         2.206312        -0.276123         0.385019
 H        -3.002882        -1.071770        -0.074160
 H        -2.587582         0.094781         2.191193
 H        -3.591010         1.937861        -0.062054
 H        -5.212931        -0.306766        -1.489129
 H        -5.273447         1.526892        -1.856488
 H        -1.759610         0.843424        -2.286346
 H        -2.585427         2.271602        -2.243273
