19
Iteration:  3536charge 0 multiplicity 1
 C         1.528586        -0.268746         0.692736
 C         0.120061        -0.189562         0.436335
 C        -0.973907         0.146172        -0.043798
 C        -2.335524        -0.068433        -0.398224
 O        -3.001564        -0.294709         0.866172
 C        -2.970884         1.059914        -1.268202
 C        -4.486659         1.179034        -1.065864
 O        -4.784770         0.667423        -2.394946
 C        -3.406745         0.713303        -2.755791
 H         1.812968         0.125478         1.729045
 H         1.957832        -1.301937         0.519558
 H         2.170364         0.133039        -0.194002
 H        -2.439904        -1.192062        -0.835532
 H        -2.763398         0.488808         1.442555
 H        -2.577813         2.024703        -1.031967
 H        -4.944446         0.580789        -0.296172
 H        -4.964476         2.207981        -0.973855
 H        -3.039904        -0.256082        -3.129281
 H        -3.053145         1.513300        -3.466017
