19
Iteration:  3148
 C         1.306147        -0.154024        -0.057298
 C        -0.099629        -0.110746        -0.021596
 C        -1.286688        -0.283072        -0.277850
 C        -2.707448        -0.128944         0.016265
 O        -3.041473         0.068277         1.410373
 C        -3.371627         1.093475        -0.721838
 C        -4.653208         0.601988        -1.461984
 O        -3.889315         0.561032        -2.721149
 C        -2.746124         1.250972        -2.128012
 H         1.691940        -0.227876        -1.124117
 H         1.887498         0.705705         0.145759
 H         1.641195        -0.929845         0.524667
 H        -3.241913        -1.000303        -0.330091
 H        -2.370603        -0.533669         1.847099
 H        -3.548960         1.953896        -0.163551
 H        -5.110783        -0.302708        -1.021806
 H        -5.515664         1.265794        -1.623902
 H        -1.789589         0.663961        -2.448426
 H        -2.750083         2.255086        -2.528486
