19
Iteration:   296
 C         1.104822        -0.056754        -0.749802
 C        -0.091005        -0.062208         0.174601
 C        -1.267654        -0.058447         0.418745
 C        -2.676876        -0.135254         0.340878
 O        -3.357379         0.493242         1.393147
 C        -3.138620         0.816601        -0.790995
 C        -4.514363         0.573619        -1.489716
 O        -3.896112         0.486773        -2.832402
 C        -2.543646         0.779878        -2.237191
 H         0.850823         0.443455        -1.595636
 H         2.035783         0.422463        -0.300999
 H         1.357685        -1.118289        -0.970371
 H        -3.060437        -1.189399         0.195530
 H        -2.973441         0.234850         2.268482
 H        -3.118081         1.771988        -0.309257
 H        -5.006315        -0.424848        -1.382857
 H        -5.188052         1.447257        -1.425235
 H        -1.928403        -0.108006        -2.502569
 H        -2.092766         1.715659        -2.459805
