19
Iteration:  4670charge 0 multiplicity 1
 C         1.412162         0.190255         0.024995
 C        -0.009389        -0.072985        -0.058652
 C        -1.195555        -0.303727        -0.070680
 C        -2.649318        -0.426053        -0.039679
 O        -3.073625        -0.517075         1.319847
 C        -3.254547         0.782676        -0.779099
 C        -4.675152         0.802195        -1.481239
 O        -4.137154         1.415645        -2.669447
 C        -2.819855         1.049429        -2.180236
 H         2.001458        -0.491368         0.609759
 H         1.773122        -0.005054        -0.969846
 H         1.751197         1.241603         0.348300
 H        -2.887088        -1.485311        -0.540251
 H        -3.438534        -1.410186         1.508483
 H        -3.318925         1.631594        -0.063300
 H        -4.857729        -0.119581        -1.714934
 H        -5.539718         1.194271        -1.046268
 H        -2.336854         0.165600        -2.620896
 H        -2.181807         1.807903        -2.424652
