19
Iteration:  4840
 C         1.542814        -0.121582         0.559700
 C         0.172995        -0.093951         0.079948
 C        -1.020730         0.003492        -0.112485
 C        -2.399705        -0.261772        -0.332310
 O        -3.159857        -0.728988         0.754850
 C        -3.054401         1.004972        -0.957495
 C        -4.589190         1.148747        -0.998506
 O        -4.665206         0.901920        -2.424775
 C        -3.129698         1.075176        -2.547273
 H         1.811578         0.585378         1.431632
 H         1.748340        -1.168990         1.044653
 H         2.320575        -0.008350        -0.118619
 H        -2.501806        -1.060729        -1.168717
 H        -2.988812        -0.228800         1.579982
 H        -2.695164         1.886898        -0.529893
 H        -5.201582         0.415524        -0.470119
 H        -4.872610         2.353273        -1.038742
 H        -2.595438         0.314480        -3.104846
 H        -2.814158         2.221113        -2.745151
