19
Iteration:  1462
 C         1.449958        -0.129969        -0.432667
 C         0.025860        -0.109806         0.011873
 C        -1.149624        -0.024786         0.356770
 C        -2.613114        -0.090924         0.209224
 O        -3.474975        -0.010363         1.424522
 C        -3.273953         0.877050        -0.823982
 C        -4.543125         0.418978        -1.534214
 O        -4.063763         1.034713        -2.828355
 C        -2.695732         0.914636        -2.233493
 H         1.624972         0.318294        -1.397724
 H         2.003928         0.469207         0.297635
 H         1.705105        -1.176530        -0.255510
 H        -2.817476        -1.112102        -0.260900
 H        -3.108109         0.478311         2.150225
 H        -3.277277         1.891095        -0.342479
 H        -4.667461        -0.714754        -1.561279
 H        -5.526681         0.778072        -1.278260
 H        -2.315848        -0.141383        -2.361443
 H        -2.120399         1.728067        -2.688646
