19
Iteration:  1752
 C         1.387779        -0.516244         0.617357
 C         0.201478         0.129272         0.171559
 C        -0.910755         0.460250        -0.035081
 C        -2.401717         0.078737        -0.217118
 O        -2.924252         0.174888         1.107952
 C        -3.076690         0.876517        -1.193828
 C        -4.665299         0.748482        -1.148740
 O        -4.705291         0.720397        -2.636509
 C        -3.224870         0.421463        -2.639781
 H         1.450045        -1.498483        -0.075796
 H         2.314882        -0.014562         0.695915
 H         1.175100        -1.048088         1.566491
 H        -2.451252        -0.897528        -0.514260
 H        -2.164166         0.525426         1.586215
 H        -2.914941         1.936237        -1.188472
 H        -4.886155        -0.253101        -0.792625
 H        -5.243895         1.540503        -0.793853
 H        -3.051505        -0.662465        -2.826598
 H        -2.592647         0.848252        -3.385784
