19
Iteration:  1899
 C         1.261964        -0.045904        -0.267690
 C        -0.219968        -0.114057        -0.240117
 C        -1.355767        -0.161788         0.000977
 C        -2.783192        -0.043324         0.234309
 O        -3.108839         0.425097         1.626578
 C        -3.177418         0.931875        -0.806373
 C        -4.524307         0.972140        -1.589296
 O        -4.003124         0.371508        -2.766095
 C        -2.600357         0.472249        -2.237415
 H         1.809885        -0.899226        -0.120216
 H         1.492153         0.668412        -1.147327
 H         1.628453         0.574505         0.588202
 H        -3.270286        -1.135367         0.359098
 H        -2.404022        -0.056295         2.161501
 H        -2.859945         1.901180        -0.361433
 H        -5.313285         0.403690        -1.124506
 H        -4.917399         2.049236        -1.754438
 H        -2.220599        -0.516881        -2.323342
 H        -2.077056         1.285041        -2.700626
