19
Iteration:   190
 C         1.498232        -0.333650         0.019278
 C         0.026623        -0.051588         0.101029
 C        -1.180852        -0.145822        -0.020047
 C        -2.724052        -0.009237         0.231631
 O        -2.848919         0.629398         1.444948
 C        -3.520025         0.830600        -0.920287
 C        -4.719890         0.142146        -1.605877
 O        -4.180946         0.650068        -2.905407
 C        -2.853647         1.099754        -2.283887
 H         2.276744         0.547929        -0.229975
 H         1.825377        -0.829676         0.872156
 H         1.535440        -1.000600        -0.874540
 H        -3.180512        -0.994326         0.332448
 H        -1.988485         0.475545         1.933914
 H        -3.871656         1.742330        -0.443468
 H        -4.684724        -0.934307        -1.495390
 H        -5.733726         0.384126        -1.535694
 H        -1.918167         0.724059        -2.560239
 H        -2.807021         2.202241        -2.421316
