19
Iteration:  3639
 C         1.399998        -0.045520         0.583422
 C         0.095846        -0.278919         0.259344
 C        -1.044656        -0.283968        -0.222690
 C        -2.498542        -0.160839        -0.330682
 O        -3.071479        -0.120996         1.002536
 C        -2.997589         1.020909        -1.060662
 C        -4.493433         1.150782        -1.109296
 O        -4.574990         0.578104        -2.474806
 C        -3.198366         0.947191        -2.630031
 H         1.728533         0.918076         0.740103
 H         1.789875        -0.644375         1.413244
 H         2.151395        -0.247483        -0.331535
 H        -2.874675        -1.182289        -0.744333
 H        -2.273063        -0.079516         1.533161
 H        -2.384358         1.964507        -0.808419
 H        -5.083353         0.516378        -0.360114
 H        -4.863564         2.197395        -1.124416
 H        -2.533302         0.212552        -3.193749
 H        -3.197254         1.975071        -2.972099
