19
Iteration:  2910
 C         1.299915         0.329823         0.734936
 C         0.137002        -0.130093         0.018187
 C        -0.964819        -0.651528        -0.165643
 C        -2.436915        -0.518875        -0.352844
 O        -2.936686        -0.194017         1.024254
 C        -2.981864         0.742127        -1.141041
 C        -4.448067         1.333150        -1.035577
 O        -4.664765         1.165899        -2.476642
 C        -3.349067         0.602401        -2.659671
 H         0.986493         1.282385         1.123485
 H         1.575464        -0.221107         1.705333
 H         2.258394         0.277177         0.081979
 H        -2.934164        -1.446165        -0.692905
 H        -2.085380        -0.211597         1.555607
 H        -2.216257         1.496176        -0.990804
 H        -5.016392         0.654189        -0.325493
 H        -4.509440         2.409061        -0.805131
 H        -3.371234        -0.404775        -3.124493
 H        -2.857556         1.281430        -3.606253
