19
Iteration:  3720
 C         1.532831        -0.107858         0.094107
 C         0.020744        -0.025041         0.042657
 C        -1.167103        -0.180300        -0.016669
 C        -2.639346        -0.171790        -0.020965
 O        -3.191372        -0.126679         1.275693
 C        -3.180733         0.976732        -0.854455
 C        -4.660183         0.871628        -1.321304
 O        -4.246457         0.901998        -2.736597
 C        -2.873026         0.806672        -2.370316
 H         1.984191         0.833034        -0.402628
 H         1.905202        -0.056991         1.148287
 H         1.891675        -1.030129        -0.356693
 H        -2.981838        -1.095931        -0.585105
 H        -2.972792        -0.991310         1.701194
 H        -2.787551         1.946076        -0.501094
 H        -5.343697        -0.044808        -0.970838
 H        -5.284222         1.774554        -1.188124
 H        -2.376197        -0.157778        -2.779970
 H        -2.144771         1.542568        -2.852071
