19
Iteration:  4111charge 0 multiplicity 1
 C         1.579195        -0.102451         0.325396
 C         0.117990        -0.165354         0.197857
 C        -1.052815        -0.281369        -0.049607
 C        -2.555513        -0.178424        -0.311971
 O        -3.172008        -0.449204         0.986457
 C        -3.134514         1.122058        -0.910559
 C        -4.707424         1.021073        -1.148879
 O        -4.411214         0.753544        -2.532901
 C        -3.070375         1.192992        -2.463656
 H         1.919923        -0.264471         1.402803
 H         2.088436        -0.728744        -0.479140
 H         1.970052         0.898209         0.166341
 H        -2.845717        -1.141621        -0.961248
 H        -2.558263        -0.917721         1.550414
 H        -2.739532         2.069161        -0.391175
 H        -5.110009         0.243323        -0.611893
 H        -5.097237         2.059862        -1.091498
 H        -2.380848         0.576095        -3.108861
 H        -2.757201         2.176238        -2.924088
