19
Iteration:   793charge 0 multiplicity 1
 C         1.282295         0.006301        -0.461214
 C        -0.049536        -0.061390         0.015181
 C        -1.151834         0.095291         0.350638
 C        -2.608495        -0.098538         0.271715
 O        -3.380421         0.068117         1.446727
 C        -3.190752         0.837566        -0.857718
 C        -4.544857         0.631944        -1.502832
 O        -4.058851         0.901422        -2.811842
 C        -2.648876         0.606686        -2.265537
 H         2.013877        -0.152641         0.474892
 H         1.577208        -0.823240        -1.023549
 H         1.528894         0.874245        -1.094657
 H        -2.695128        -1.229299        -0.027669
 H        -3.605259        -0.829391         1.624253
 H        -2.984961         1.887947        -0.510541
 H        -4.824364        -0.459325        -1.359332
 H        -5.433991         1.281778        -1.224726
 H        -2.426465        -0.437965        -2.573440
 H        -1.889431         1.337684        -2.559118
