19
Iteration:  1003charge 0 multiplicity 1
 C         1.123716        -0.328458        -0.357091
 C        -0.331597        -0.432983        -0.254914
 C        -1.498739        -0.379010        -0.344276
 C        -2.798978         0.013689         0.303680
 O        -2.634250         0.852274         1.379080
 C        -3.803769         0.534522        -0.641551
 C        -3.973392        -0.195414        -1.978630
 O        -3.281434         0.801669        -2.647029
 C        -3.347918         1.752071        -1.515536
 H         1.284284         0.580645         0.385900
 H         1.573012        -1.185962         0.046864
 H         1.454588        -0.122428        -1.386237
 H        -3.228841        -0.957665         0.606063
 H        -3.450560         0.713034         1.885338
 H        -4.792366         0.708657        -0.121204
 H        -3.625074        -1.224909        -1.993425
 H        -5.112542        -0.104791        -2.194779
 H        -2.347691         2.220276        -1.365247
 H        -4.199647         2.512053        -1.645303
