19
Iteration:  1802
 C         1.679478        -0.403752         0.389574
 C         0.234473        -0.198165         0.208170
 C        -1.002796         0.025525         0.062777
 C        -2.504625         0.056588        -0.054870
 O        -3.100778         0.531451         1.172003
 C        -3.192913         0.910931        -1.059825
 C        -4.715776         0.619381        -1.274885
 O        -4.585992         0.625788        -2.748089
 C        -3.151787         0.680960        -2.637706
 H         2.156937        -1.235107        -0.017775
 H         2.034274         0.585999        -0.011983
 H         2.026256        -0.407185         1.435047
 H        -2.824661        -0.945920        -0.259734
 H        -2.530075         0.263034         1.952401
 H        -3.041650         1.977082        -0.865092
 H        -4.966297        -0.432646        -1.073499
 H        -5.435558         1.378764        -0.856854
 H        -2.633403        -0.317854        -2.907847
 H        -2.672482         1.493494        -3.308785
