19
Iteration:  1714
 C         1.491570        -0.487311         0.813991
 C         0.285785         0.117532         0.303953
 C        -0.860572         0.377557        -0.185686
 C        -2.301576         0.075017        -0.257625
 O        -2.868996        -0.013612         1.060254
 C        -3.149146         0.987368        -1.258275
 C        -4.692494         1.002185        -1.187909
 O        -4.835460         0.626896        -2.645787
 C        -3.363171         0.373933        -2.657989
 H         1.798576        -1.082994         0.031839
 H         2.343510         0.250991         1.038462
 H         1.263347        -1.088019         1.713547
 H        -2.466904        -1.012808        -0.698449
 H        -2.253442         0.470476         1.694184
 H        -2.499464         1.870088        -1.274576
 H        -5.242265         0.215106        -0.610636
 H        -5.136229         2.028885        -0.872447
 H        -3.287338        -0.656363        -2.591034
 H        -2.892401         1.004295        -3.447041
