19
Iteration:  4452
 C         1.484701         0.014837        -0.007505
 C         0.092942        -0.179474        -0.001598
 C        -1.144467        -0.153138        -0.073589
 C        -2.676233        -0.337393        -0.127084
 O        -3.194640        -0.445815         1.117201
 C        -3.298453         0.933479        -0.685671
 C        -4.662340         0.727172        -1.354276
 O        -4.084279         0.860854        -2.726263
 C        -2.884774         1.528017        -2.059402
 H         1.912705        -0.131801        -0.982718
 H         1.783586         1.012715         0.299636
 H         2.019598        -0.814040         0.588577
 H        -2.977179        -1.286505        -0.856800
 H        -2.949302        -1.333752         1.465389
 H        -3.439370         1.550071         0.188722
 H        -5.232329        -0.132989        -1.262353
 H        -5.299018         1.661284        -1.196675
 H        -1.880804         1.037245        -2.289783
 H        -3.118844         2.544932        -2.031544
