19
Iteration:  3039
 C         1.530729        -0.278841         0.301780
 C         0.113894        -0.030777         0.348764
 C        -1.068403         0.009752         0.132140
 C        -2.423520        -0.084917        -0.276226
 O        -3.169872        -0.160633         0.941163
 C        -3.043134         1.031807        -1.051231
 C        -4.602312         0.817391        -1.099192
 O        -4.578872         0.723820        -2.587031
 C        -3.099009         0.961036        -2.573433
 H         1.913477         0.480049        -0.496403
 H         2.037613        -0.090625         1.284444
 H         1.872323        -1.242441        -0.247752
 H        -2.673844        -1.098416        -0.769479
 H        -2.576544        -0.213926         1.675814
 H        -2.677000         1.922478        -0.641272
 H        -4.800631        -0.201714        -0.689190
 H        -5.278029         1.560424        -0.588180
 H        -2.541384         0.086032        -3.027096
 H        -2.919963         1.841191        -3.087235
