19
Iteration:  3990charge 0 multiplicity 1
 C         1.411398        -0.284163        -0.170611
 C        -0.012322        -0.246911         0.001006
 C        -1.161619         0.020389         0.045045
 C        -2.635558        -0.123934         0.056087
 O        -3.161500        -0.101631         1.373697
 C        -3.418146         0.940198        -0.753923
 C        -4.684485         0.482895        -1.536246
 O        -3.970868         0.786028        -2.812106
 C        -2.816013         1.434782        -2.097468
 H         1.812950        -1.353629        -0.300935
 H         1.668376         0.263211        -1.138586
 H         1.887201         0.292828         0.560436
 H        -2.901491        -1.147354        -0.433691
 H        -2.598211        -0.680858         1.894732
 H        -3.557468         1.932078        -0.063485
 H        -4.985388        -0.517354        -1.401412
 H        -5.443398         1.280086        -1.528816
 H        -1.871190         0.850707        -2.419710
 H        -2.800274         2.608716        -2.203416
