19
Iteration:  1656charge 0 multiplicity 1
 C         1.508464         0.019889         0.784007
 C         0.197506        -0.267044         0.273599
 C        -0.951546        -0.088841        -0.158850
 C        -2.440065        -0.141751        -0.347660
 O        -3.084736         0.093130         0.969332
 C        -2.939031         0.898456        -1.295933
 C        -4.447662         1.112973        -1.105622
 O        -4.760426         0.595278        -2.341808
 C        -3.381225         0.548743        -2.808295
 H         2.308429        -0.275504         0.102647
 H         1.619341         1.062030         1.116741
 H         1.652932        -0.667897         1.616833
 H        -2.704301        -1.266961        -0.531465
 H        -2.641392         0.758938         1.483988
 H        -2.234510         1.767002        -1.312619
 H        -4.953486         0.542244        -0.287800
 H        -4.579724         2.273218        -0.936467
 H        -3.146224        -0.341080        -3.332477
 H        -3.081324         1.290953        -3.586141
