19
Iteration:   752charge 0 multiplicity 1
 C         1.379199         0.223199        -0.264027
 C         0.007455        -0.052290         0.106943
 C        -1.199484        -0.286687         0.129746
 C        -2.665621        -0.213112         0.172037
 O        -3.333680         0.033524         1.391575
 C        -3.079554         0.869301        -0.871839
 C        -4.565825         1.063819        -1.456169
 O        -4.174036         0.651633        -2.792551
 C        -2.757548         0.517817        -2.282999
 H         2.141769         0.034234         0.584592
 H         1.557227        -0.391007        -1.148861
 H         1.409979         1.272639        -0.600196
 H        -3.053908        -1.113684        -0.293864
 H        -2.913482        -0.142423         2.251639
 H        -2.564633         1.860490        -0.644530
 H        -5.239721         0.306143        -1.065363
 H        -4.973508         2.061330        -1.396347
 H        -2.304539        -0.450341        -2.448304
 H        -2.077937         1.284992        -2.746327
