19
Iteration:  3478charge 0 multiplicity 1
 C         1.644001        -0.119475         0.637207
 C         0.207711        -0.111079         0.082103
 C        -1.023669        -0.080365        -0.090578
 C        -2.496297        -0.265465        -0.255651
 O        -3.160240        -0.030410         0.979086
 C        -3.051390         0.875745        -1.135696
 C        -4.549560         1.152957        -1.071602
 O        -4.661461         0.803098        -2.521132
 C        -3.194577         0.681640        -2.640952
 H         1.490501        -0.267534         1.843384
 H         2.079252        -1.067207         0.323795
 H         2.008551         0.838065         0.451960
 H        -2.669817        -1.389724        -0.789569
 H        -2.728572        -0.562602         1.647968
 H        -2.477815         1.763293        -0.917578
 H        -4.973570         0.305043        -0.442495
 H        -4.939663         2.185928        -0.911076
 H        -2.993405        -0.211668        -3.219842
 H        -2.806317         1.597460        -3.149262
