19
Iteration:  3169charge 0 multiplicity 1
 C         1.297440        -0.123460        -0.221815
 C        -0.150401        -0.180367        -0.047566
 C        -1.351811        -0.254120         0.007916
 C        -2.801366        -0.173547         0.032692
 O        -3.060324         0.076427         1.399333
 C        -3.315952         1.014045        -0.702064
 C        -4.579090         0.591757        -1.519020
 O        -3.822532         0.539884        -2.765159
 C        -2.740188         1.340960        -2.101103
 H         1.590045        -0.267762        -1.299658
 H         1.620517         0.875524        -0.266051
 H         1.910412        -0.671332         0.377489
 H        -3.445897        -1.083138        -0.325723
 H        -2.280698        -0.130819         1.925160
 H        -3.351414         1.781217         0.048565
 H        -5.078348        -0.355901        -1.284855
 H        -5.386855         1.321324        -1.484120
 H        -1.732731         0.798094        -2.363542
 H        -2.726294         2.437176        -2.384035
