19
Iteration:  1593
 C         1.258932         0.382208         0.380518
 C        -0.028553        -0.213215         0.170398
 C        -1.211982        -0.432120        -0.187266
 C        -2.593414        -0.332550        -0.211730
 O        -3.081513        -0.082776         1.183645
 C        -2.841373         0.897526        -1.139611
 C        -4.276282         1.422607        -1.236524
 O        -4.560820         0.654682        -2.434372
 C        -3.068390         0.427297        -2.538032
 H         1.976100         0.431312        -0.467993
 H         1.136165         1.380265         1.025516
 H         1.799899        -0.320342         1.088653
 H        -3.173929        -1.083027        -0.618225
 H        -2.221458         0.115155         1.601876
 H        -2.099749         1.700726        -0.922908
 H        -4.956253         0.978446        -0.516320
 H        -4.280289         2.468490        -1.414207
 H        -2.836301        -0.628535        -2.779018
 H        -2.659791         1.123596        -3.363452
