19
Iteration:  1396charge 0 multiplicity 1
 C         1.377233        -0.397178        -0.284909
 C        -0.002011         0.021112        -0.068980
 C        -1.265738        -0.065781         0.029533
 C        -2.748287        -0.011247         0.245928
 O        -3.042109         0.155191         1.634100
 C        -3.614863         0.857804        -0.748840
 C        -4.490009         0.143976        -1.833357
 O        -3.836063         0.875538        -2.923645
 C        -2.893917         1.401337        -2.008221
 H         1.955097        -0.020049        -1.105352
 H         1.913821        -0.206907         0.624933
 H         1.340732        -1.483214        -0.437423
 H        -3.037107        -1.142986         0.045029
 H        -2.139455         0.127377         2.052868
 H        -4.341492         1.451099        -0.099809
 H        -4.470110        -0.968761        -1.868036
 H        -5.560635         0.192460        -1.894869
 H        -1.903508         0.835031        -2.069444
 H        -2.757931         2.502789        -2.110778
