19
Iteration:   117
 C         1.541202        -0.508531         0.393725
 C         0.154738        -0.192996         0.082444
 C        -1.019965         0.012298        -0.090585
 C        -2.477890         0.114752         0.095883
 O        -2.869198         0.564384         1.305930
 C        -3.402081         0.869464        -0.973263
 C        -4.558435         0.033510        -1.528841
 O        -4.602900         0.778655        -2.813823
 C        -3.160482         1.128788        -2.447096
 H         1.805926         0.346803         1.062229
 H         1.619295        -1.500010         1.016931
 H         2.198255        -0.428950        -0.480043
 H        -2.790628        -0.964017        -0.032525
 H        -2.338008         1.329928         1.613055
 H        -3.682160         1.885339        -0.497336
 H        -3.998258        -0.888393        -1.866257
 H        -5.617326        -0.052851        -0.981066
 H        -2.544652         0.312062        -3.019196
 H        -2.741618         2.161031        -2.609220
