19
Iteration:   424charge 0 multiplicity 1
 C         1.366558         0.177521        -0.135271
 C        -0.029149        -0.233664         0.149487
 C        -1.246200        -0.234478         0.222037
 C        -2.635991        -0.193491         0.157479
 O        -3.058938         0.395411         1.435187
 C        -3.114356         0.919958        -0.929100
 C        -4.574232         0.913506        -1.403591
 O        -4.259426         0.524214        -2.833027
 C        -2.874913         0.501776        -2.523267
 H         1.551454        -0.321756        -1.155707
 H         1.303621         1.310699        -0.318356
 H         2.159289        -0.228402         0.523440
 H        -3.196517        -1.142900        -0.013588
 H        -2.471670         0.039498         2.126219
 H        -2.632020         1.884773        -0.601557
 H        -5.354579         0.323708        -0.910384
 H        -4.960928         1.952156        -1.551915
 H        -2.668956        -0.600139        -2.577997
 H        -2.050263         1.011258        -3.126127
