19
Iteration:  1728
 C         1.406869        -0.512378         0.708699
 C         0.216415         0.125463         0.284937
 C        -0.890918         0.514172        -0.190093
 C        -2.311553         0.086299        -0.224892
 O        -2.868007         0.020371         1.128446
 C        -3.102877         0.886037        -1.209121
 C        -4.649286         0.913294        -1.224538
 O        -4.776550         0.688659        -2.611888
 C        -3.347856         0.374727        -2.676027
 H         1.720960        -1.454144         0.094630
 H         2.212795         0.132558         0.989470
 H         1.157428        -1.086946         1.634831
 H        -2.207925        -0.894390        -0.527968
 H        -2.231456         0.420583         1.702234
 H        -2.963699         1.928738        -1.268557
 H        -4.964353         0.081459        -0.579356
 H        -5.059601         1.857915        -1.049440
 H        -3.074581        -0.655892        -2.931599
 H        -2.845253         0.849034        -3.491503
