19
Iteration:  1558
 C         1.313699         0.386961         0.134664
 C        -0.025680        -0.164954        -0.030049
 C        -1.188019        -0.481171        -0.026721
 C        -2.641203        -0.256107        -0.034380
 O        -3.242709        -0.209367         1.298905
 C        -2.898084         0.928556        -0.993326
 C        -4.374540         1.408841        -1.338394
 O        -4.370998         0.735388        -2.612031
 C        -2.948881         0.368558        -2.404083
 H         1.781526         0.677481        -0.775640
 H         1.284395         1.407182         0.809855
 H         1.818711        -0.408102         0.722546
 H        -3.019534        -1.138499        -0.472125
 H        -2.635657         0.112375         1.983607
 H        -2.259776         1.816941        -0.846033
 H        -5.267812         1.169951        -0.734592
 H        -4.485419         2.506353        -1.275877
 H        -2.733399        -0.689362        -2.513650
 H        -2.233429         0.976214        -3.107294
