19
Iteration:  4108
 C         1.558221        -0.110786         0.302695
 C         0.120823        -0.174015         0.206174
 C        -1.046635        -0.250236        -0.027977
 C        -2.578659        -0.169735        -0.326009
 O        -3.160410        -0.446661         0.996957
 C        -3.152334         1.128083        -0.889990
 C        -4.684636         1.016699        -1.133792
 O        -4.418223         0.737965        -2.565485
 C        -3.044827         1.216161        -2.466825
 H         1.950333        -0.368883         1.379784
 H         2.122515        -0.728359        -0.477805
 H         1.930476         0.892684         0.143244
 H        -2.826469        -1.140271        -0.975864
 H        -2.543241        -0.939474         1.590987
 H        -2.771860         1.983596        -0.479225
 H        -5.119134         0.144962        -0.607267
 H        -5.088018         2.037952        -1.125621
 H        -2.397119         0.539724        -3.027615
 H        -2.786025         2.187543        -2.824615
