19
Iteration:  4639charge 0 multiplicity 1
 C         1.459954         0.174191        -0.153851
 C        -0.004548        -0.061931        -0.054447
 C        -1.192220        -0.328808        -0.018593
 C        -2.690604        -0.394039        -0.005137
 O        -3.267821        -0.489699         1.302756
 C        -3.306030         0.787923        -0.754410
 C        -4.641214         0.729803        -1.461200
 O        -4.035690         1.260939        -2.715097
 C        -2.718159         1.224617        -2.048214
 H         1.997078        -0.666261         0.185690
 H         1.634408         0.323541        -1.187637
 H         1.892071         1.127792         0.357318
 H        -2.925260        -1.347636        -0.583713
 H        -3.037030        -1.395776         1.557134
 H        -3.367444         1.533455        -0.023253
 H        -5.176787        -0.421981        -1.738356
 H        -5.399845         1.353744        -0.951081
 H        -2.046889         0.447932        -2.504943
 H        -2.310891         2.285466        -2.086264
