19
Iteration:  2445
 C         1.477023         0.155043         0.160075
 C         0.063148         0.007390        -0.205857
 C        -1.148843        -0.134314        -0.028760
 C        -2.659032        -0.253776         0.049778
 O        -3.080390        -0.170447         1.429286
 C        -3.247419         0.795482        -0.911774
 C        -4.712689         0.978512        -1.422420
 O        -4.164273         1.129740        -2.749894
 C        -2.945451         0.401438        -2.349408
 H         2.169875         0.092397        -0.680958
 H         1.479130         1.039578         0.735541
 H         1.728628        -0.697380         0.870955
 H        -2.874717        -1.251724        -0.380390
 H        -2.323086        -0.592482         1.930565
 H        -2.928573         1.791740        -0.598229
 H        -5.332209        -0.016189        -1.374520
 H        -5.302874         1.899330        -1.116346
 H        -3.320341        -0.662468        -2.530019
 H        -2.012001         0.820924        -2.755489
