19
Iteration:    64charge 0 multiplicity 1
 C         1.527865        -0.473575         0.438143
 C         0.187149         0.037526         0.105138
 C        -1.007162         0.247036        -0.193877
 C        -2.531108        -0.027357         0.001721
 O        -2.810706         0.370443         1.393575
 C        -3.429383         0.828021        -0.937842
 C        -4.742201         0.325907        -1.496731
 O        -4.478763         0.751030        -2.828854
 C        -3.110624         0.866993        -2.463321
 H         1.872024        -0.265200         1.390240
 H         1.433641        -1.643803         0.123662
 H         2.285397        -0.185653        -0.300083
 H        -2.750855        -1.096891        -0.091866
 H        -2.313417         1.213859         1.508636
 H        -3.505862         1.886813        -0.558170
 H        -4.910499        -0.730329        -1.391058
 H        -5.759798         0.729037        -1.108710
 H        -2.572603        -0.075470        -2.722906
 H        -2.590833         1.747542        -2.854002
