19
Iteration:   998charge 0 multiplicity 1
 C         1.107005        -0.284887        -0.315695
 C        -0.300956        -0.443475        -0.239589
 C        -1.527588        -0.333588        -0.353278
 C        -2.791061        -0.029441         0.261644
 O        -2.594811         0.845008         1.388232
 C        -3.822678         0.550354        -0.623247
 C        -4.046644        -0.191705        -1.958808
 O        -3.282911         0.780584        -2.696879
 C        -3.316483         1.767493        -1.490299
 H         1.393197         0.532085         0.250834
 H         1.402002        -1.320578         0.101264
 H         1.396526        -0.019215        -1.335134
 H        -3.230983        -0.996994         0.678702
 H        -3.396060         0.568089         1.868266
 H        -4.743305         0.785864        -0.121561
 H        -3.644296        -1.228006        -2.063221
 H        -5.058255        -0.211000        -2.285542
 H        -2.303451         2.137852        -1.373621
 H        -4.055740         2.502736        -1.678769
