19
Iteration:  4166charge 0 multiplicity 1
 C         1.386916         0.083996         0.561791
 C         0.089517        -0.160299         0.012018
 C        -1.058684        -0.248515        -0.182494
 C        -2.443207        -0.397623        -0.347348
 O        -3.165009        -0.493025         0.882216
 C        -2.966758         1.015772        -0.998349
 C        -4.474089         1.211812        -0.959913
 O        -4.564101         0.923334        -2.411040
 C        -3.103153         0.971219        -2.573424
 H         1.175142         0.540751         1.590056
 H         1.920891        -0.923584         0.483415
 H         1.885194         0.909568         0.001176
 H        -2.926933        -1.212875        -1.089926
 H        -2.625366        -1.108359         1.394055
 H        -2.194206         1.737599        -0.624568
 H        -5.003669         0.571290        -0.329108
 H        -4.895189         2.140636        -0.517191
 H        -2.869766         0.016989        -3.106888
 H        -2.687424         1.873625        -3.024052
