19
Iteration:  3193
 C         1.330339        -0.066029        -0.401671
 C        -0.062048        -0.281823        -0.133508
 C        -1.264401        -0.248809         0.081118
 C        -2.722424        -0.162190         0.231302
 O        -3.275143         0.032043         1.608276
 C        -3.344938         0.955984        -0.726944
 C        -4.612913         0.686047        -1.654774
 O        -3.757365         0.569061        -2.848402
 C        -2.766050         1.312800        -2.118954
 H         1.822789        -0.411238        -1.346496
 H         1.651965         0.948501        -0.563284
 H         1.845814        -0.471470         0.381214
 H        -3.236276        -1.144384        -0.079099
 H        -2.618635         0.005456         2.361064
 H        -3.282070         1.763917        -0.062548
 H        -5.132708        -0.267319        -1.551987
 H        -5.401656         1.443016        -1.592710
 H        -1.684399         0.912118        -2.274953
 H        -2.841097         2.397004        -2.268096
