19
Iteration:  4131
 C         1.534362        -0.011015         0.435607
 C         0.185144        -0.129502         0.120085
 C        -1.020105        -0.330266        -0.194335
 C        -2.537679        -0.259235        -0.331538
 O        -3.247766        -0.439418         0.925829
 C        -3.041077         1.072615        -0.868723
 C        -4.585211         1.120871        -1.038893
 O        -4.553028         0.774695        -2.547630
 C        -3.072124         1.122130        -2.456193
 H         1.736068        -0.101671         1.599949
 H         2.218413        -0.830567        -0.012106
 H         1.999891         0.894030         0.096325
 H        -2.787533        -1.201653        -1.006054
 H        -2.787169        -0.841457         1.667097
 H        -2.538764         1.900118        -0.502406
 H        -5.136856         0.308099        -0.605956
 H        -4.937872         2.171751        -0.997039
 H        -2.451650         0.374243        -2.956784
 H        -2.788466         2.079559        -2.862053
