19
Iteration:  1389charge 0 multiplicity 1
 C         1.372185        -0.391708        -0.244545
 C        -0.044892        -0.059123        -0.084853
 C        -1.230384        -0.063594        -0.042576
 C        -2.732458        -0.026819         0.246526
 O        -3.021665         0.188674         1.649640
 C        -3.642689         0.876786        -0.774347
 C        -4.503194         0.076856        -1.843191
 O        -3.827725         0.837367        -2.938340
 C        -2.894059         1.489586        -1.937097
 H         1.808425         0.220545        -1.121690
 H         1.942907        -0.224104         0.648466
 H         1.270723        -1.487835        -0.400836
 H        -3.038698        -1.009544         0.006484
 H        -2.155115         0.104121         2.145108
 H        -4.192482         1.493638        -0.069024
 H        -4.262947        -1.019323        -2.000834
 H        -5.624978         0.373976        -1.816668
 H        -1.976673         0.942963        -2.098329
 H        -2.777030         2.539268        -2.035073
