19
Iteration:  1232charge 0 multiplicity 1
 C         1.026688        -0.618018        -0.664129
 C        -0.377522        -0.522456        -0.394088
 C        -1.442435        -0.203867         0.171584
 C        -2.773223        -0.026140         0.528986
 O        -2.991942         1.020654         1.514526
 C        -3.725899         0.346816        -0.695755
 C        -3.554484        -0.226764        -2.141745
 O        -3.327338         1.049881        -2.726844
 C        -3.449031         1.744418        -1.463997
 H         1.622766         0.367751        -0.868266
 H         1.458620        -1.081909         0.257230
 H         1.414689        -1.241907        -1.496482
 H        -3.202811        -0.931352         0.919644
 H        -2.644241         1.771737         0.996129
 H        -4.844727         0.252419        -0.538212
 H        -2.648979        -0.806163        -2.342794
 H        -4.370399        -0.878442        -2.564341
 H        -2.507676         2.275708        -1.206380
 H        -4.304826         2.404002        -1.360878
