19
Iteration:  2023
 C         1.292557        -0.115944        -0.605402
 C        -0.052596        -0.119589         0.098219
 C        -1.206864        -0.013998         0.439652
 C        -2.613706        -0.041163         0.249668
 O        -3.473494         0.414202         1.398558
 C        -3.042391         0.827251        -0.858424
 C        -4.471236         0.661190        -1.333134
 O        -4.070549         0.634572        -2.769532
 C        -2.640024         0.522643        -2.370217
 H         1.958478        -0.727238         0.028244
 H         1.317524        -0.630942        -1.564172
 H         1.597724         0.923109        -0.624693
 H        -3.207575        -1.062278         0.085336
 H        -3.475403         1.414939         1.354732
 H        -2.825783         1.852503        -0.611935
 H        -4.987722        -0.126176        -0.921791
 H        -5.150685         1.504949        -1.139729
 H        -2.398341        -0.534633        -2.572867
 H        -2.023400         1.122504        -3.049662
