19
Iteration:   559charge 0 multiplicity 1
 C         1.518023        -0.360117         0.761964
 C         0.229886         0.059367         0.333174
 C        -0.882477         0.359235        -0.023127
 C        -2.236770         0.138802        -0.313385
 O        -2.898623         0.148959         1.005474
 C        -3.076673         1.042217        -1.278695
 C        -4.648998         0.804686        -1.157817
 O        -4.851800         0.605431        -2.642300
 C        -3.453264         0.267782        -2.649988
 H         1.531277        -1.407690         0.570723
 H         2.392512         0.092326         0.084357
 H         1.791575        -0.125675         1.820188
 H        -2.306554        -0.927118        -0.681890
 H        -2.299303         0.433250         1.753260
 H        -2.858977         2.012577        -1.550977
 H        -4.847041        -0.154917        -0.637896
 H        -5.305009         1.567199        -0.689043
 H        -3.184061        -0.825705        -2.536043
 H        -3.026062         0.696036        -3.546081
