19
Iteration:   158charge 0 multiplicity 1
 C         1.472429        -0.351705         0.229895
 C         0.086677        -0.352763         0.066366
 C        -1.069112        -0.051916        -0.017891
 C        -2.538900         0.029438         0.142772
 O        -2.929936         0.652150         1.425393
 C        -3.353593         0.838906        -0.946522
 C        -4.564921         0.055868        -1.548484
 O        -4.448834         0.693208        -2.916275
 C        -3.076267         1.220308        -2.417833
 H         1.967613         0.728294         0.415557
 H         1.808489        -1.048105         0.888238
 H         1.957079        -0.844610        -0.635958
 H        -2.963719        -0.977052         0.293586
 H        -2.122017         0.958961         1.805235
 H        -3.702042         1.766020        -0.460096
 H        -4.178026        -0.973017        -1.532566
 H        -5.569126         0.242096        -1.163862
 H        -2.209282         0.803690        -2.877241
 H        -3.120408         2.331830        -2.510805
