19
Iteration:  3628
 C         1.463565        -0.083253         0.626288
 C         0.028083        -0.248788         0.278966
 C        -1.083018        -0.140471        -0.291663
 C        -2.466950        -0.221625        -0.351877
 O        -3.048896        -0.150560         0.995837
 C        -2.975507         1.037129        -1.153675
 C        -4.520634         1.146004        -1.080092
 O        -4.591470         0.563814        -2.399484
 C        -3.160127         0.941728        -2.632675
 H         1.516137         0.875094         0.979161
 H         1.748925        -0.793841         1.410618
 H         2.020346        -0.399081        -0.372309
 H        -2.844816        -1.155457        -0.918078
 H        -2.381740         0.040135         1.655946
 H        -2.388323         1.930190        -0.700238
 H        -5.059166         0.650009        -0.216087
 H        -4.797014         2.221280        -1.131716
 H        -2.706382         0.134862        -3.290931
 H        -3.008598         1.856986        -3.232117
