19
Iteration:  2224
 C         1.610112        -0.432774         0.576046
 C         0.266701         0.112025         0.241909
 C        -0.941554         0.105990        -0.050632
 C        -2.419716         0.064860        -0.208671
 O        -3.236613         0.033149         1.008840
 C        -3.073367         1.033807        -1.223927
 C        -4.578128         0.911966        -1.098087
 O        -4.684715         0.662866        -2.576055
 C        -3.256225         0.545134        -2.634700
 H         2.187119         0.439512         1.148717
 H         1.588959        -1.417583         0.986943
 H         2.238084        -0.576356        -0.333477
 H        -2.551791        -0.903598        -0.604356
 H        -2.533689        -0.031346         1.720979
 H        -2.752524         2.099356        -1.050068
 H        -4.827464        -0.127144        -0.682889
 H        -5.118114         1.828064        -0.686715
 H        -2.846966        -0.444879        -2.744909
 H        -2.666306         1.074860        -3.436228
