19
Iteration:  4564
 C         1.423749         0.015401        -0.453301
 C         0.005768        -0.031599         0.008286
 C        -1.195778        -0.136642         0.158377
 C        -2.705241        -0.286321        -0.038359
 O        -3.415833        -0.738158         1.227280
 C        -3.342656         0.996771        -0.621499
 C        -4.574089         0.704660        -1.474699
 O        -3.826088         0.864388        -2.694422
 C        -2.700299         1.501424        -1.945362
 H         1.736971        -0.951808        -0.805821
 H         1.528171         0.806617        -1.174640
 H         2.115721         0.369131         0.371529
 H        -2.943014        -1.082131        -0.778372
 H        -3.625506         0.091199         1.724247
 H        -3.641495         1.694174         0.152185
 H        -4.976763        -0.165139        -1.328469
 H        -5.361919         1.488277        -1.529882
 H        -1.752981         1.064228        -2.297399
 H        -2.848371         2.633970        -1.979297
