19
Iteration:  3493
 C         1.586653        -0.173235         0.650497
 C         0.231645        -0.071800         0.254616
 C        -0.953989        -0.176332        -0.055711
 C        -2.396363        -0.165014        -0.341792
 O        -3.191405        -0.078189         0.898011
 C        -2.991896         0.975313        -1.167849
 C        -4.565936         1.087264        -1.079575
 O        -4.733472         0.765504        -2.478287
 C        -3.283961         0.715266        -2.679232
 H         1.740952        -0.121859         1.720279
 H         2.119129        -1.092479         0.260191
 H         2.329731         0.673471         0.319234
 H        -2.691262        -1.128492        -0.804569
 H        -2.533761        -0.211585         1.633500
 H        -2.426162         1.880737        -0.957644
 H        -5.198491         0.569473        -0.419026
 H        -4.811872         2.139913        -0.781686
 H        -2.969016        -0.361935        -2.827548
 H        -3.004011         1.513755        -3.367348
