19
Iteration:  4667
 C         1.416088         0.192382         0.003638
 C        -0.003517        -0.056997        -0.050261
 C        -1.175523        -0.323992        -0.062407
 C        -2.649652        -0.455401        -0.043211
 O        -3.089278        -0.513072         1.323795
 C        -3.282484         0.802118        -0.758900
 C        -4.673979         0.824188        -1.507014
 O        -4.127251         1.398819        -2.663842
 C        -2.809497         1.052684        -2.173529
 H         2.037381        -0.530454         0.640518
 H         1.802125         0.040495        -1.068083
 H         1.724370         1.148779         0.340775
 H        -2.854077        -1.404669        -0.514740
 H        -3.422941        -1.382316         1.514097
 H        -3.286725         1.718993         0.020497
 H        -4.953256        -0.364622        -1.743558
 H        -5.610359         1.222705        -1.091468
 H        -2.328924         0.194571        -2.657967
 H        -2.207145         1.932344        -2.420789
