19
Iteration:   450charge 0 multiplicity 1
 C         1.474668         0.158442         0.135015
 C         0.008824        -0.305806         0.187168
 C        -1.212013        -0.358589        -0.015843
 C        -2.624282        -0.075939        -0.042582
 O        -3.061233         0.489831         1.371298
 C        -3.088788         0.891647        -1.069414
 C        -4.611730         0.794371        -1.280217
 O        -4.397518         0.588931        -2.731957
 C        -2.910581         0.506068        -2.490047
 H         1.901071        -0.370436        -0.677786
 H         1.365168         1.256963        -0.190078
 H         2.140091        -0.089926         0.977388
 H        -3.242633        -0.955121        -0.125358
 H        -2.214315         0.660958         1.811158
 H        -2.585785         1.785112        -0.987291
 H        -4.954165        -0.131948        -0.783932
 H        -5.318060         1.632633        -1.101417
 H        -2.610399        -0.493042        -2.871186
 H        -2.293575         1.278646        -2.892869
