19
Iteration:  2605charge 0 multiplicity 1
 C         1.383587        -0.225256        -0.262791
 C        -0.045268         0.099997        -0.119595
 C        -1.259264        -0.031109        -0.069680
 C        -2.795198        -0.073365         0.087793
 O        -3.094922        -0.141831         1.525542
 C        -3.489549         1.101215        -0.671288
 C        -4.635829         0.675211        -1.619017
 O        -3.807666         0.484621        -2.796741
 C        -2.784926         1.149379        -2.036969
 H         1.346353        -1.336383        -0.264374
 H         2.040089         0.177649        -1.079880
 H         1.871682         0.133491         0.531357
 H        -2.925714        -1.001181        -0.307929
 H        -2.543281        -0.908376         1.748863
 H        -3.623144         1.987780         0.005284
 H        -5.186082        -0.210309        -1.253625
 H        -5.268855         1.500928        -1.936165
 H        -1.729443         0.712148        -2.026486
 H        -2.727458         2.261051        -2.300625
