19
Iteration:  2458
 C         1.502220         0.086074         0.069886
 C         0.058134         0.079931        -0.226489
 C        -1.127942        -0.132028         0.019258
 C        -2.616033        -0.270703         0.121498
 O        -3.185135        -0.175937         1.417854
 C        -3.238965         0.812316        -0.786262
 C        -4.703848         0.894452        -1.478629
 O        -4.145949         1.119372        -2.825613
 C        -2.979200         0.522982        -2.305785
 H         2.140258         0.008108        -0.754643
 H         1.911700         1.059586         0.505196
 H         1.816222        -0.676581         0.857358
 H        -3.009112        -1.316614        -0.263042
 H        -2.624796        -0.565461         2.067666
 H        -2.773458         1.758806        -0.583404
 H        -5.376709        -0.062585        -1.256561
 H        -5.343168         1.774928        -1.184233
 H        -2.785771        -0.599903        -2.438941
 H        -2.105395         0.779799        -2.916792
