19
Iteration:   724
 C         1.324909         0.315891         0.012657
 C        -0.103161        -0.006552        -0.097276
 C        -1.306955        -0.353279         0.048431
 C        -2.781976        -0.315034         0.019581
 O        -3.187815         0.037977         1.340448
 C        -3.002654         0.852496        -0.967629
 C        -4.388592         1.190604        -1.340554
 O        -4.293167         0.512844        -2.576423
 C        -2.701277         0.525621        -2.417725
 H         1.663839        -0.170026         0.871613
 H         1.896310        -0.204051        -0.847972
 H         1.531201         1.387868        -0.046189
 H        -3.368361        -1.221038        -0.386474
 H        -2.554349         0.632332         1.734104
 H        -2.408045         1.643629        -0.596342
 H        -5.050911         0.614336        -0.637170
 H        -4.704919         2.282649        -1.363081
 H        -2.275004        -0.496616        -2.601771
 H        -2.239508         1.340628        -2.962052
