19
Iteration:  1088charge 0 multiplicity 1
 C         0.901053        -0.808528        -0.959932
 C        -0.284335        -0.355652        -0.248934
 C        -1.395011        -0.015527         0.161052
 C        -2.826709         0.024905         0.449224
 O        -3.099276         1.145914         1.429233
 C        -3.774093         0.246311        -0.692024
 C        -3.220551        -0.293543        -2.058791
 O        -3.243850         1.099332        -2.632069
 C        -3.568076         1.665895        -1.331792
 H         1.808668        -0.218469        -1.110332
 H         1.331162        -1.839279        -0.634190
 H         0.689787        -0.878850        -2.025443
 H        -3.088780        -0.924830         0.956327
 H        -3.978486         1.030009         1.900901
 H        -4.744491        -0.134901        -0.344326
 H        -2.277815        -0.797252        -1.941119
 H        -3.887589        -0.965175        -2.559183
 H        -2.629021         2.124348        -0.986691
 H        -4.399957         2.322021        -1.348017
