19
Iteration:   254
 C         1.272655        -0.119993        -0.414013
 C        -0.154968        -0.160132        -0.276005
 C        -1.306239        -0.114415         0.150561
 C        -2.737788         0.066626         0.415475
 O        -3.182461         0.559760         1.633837
 C        -3.352071         0.926798        -0.766727
 C        -4.508852         0.309990        -1.595140
 O        -3.866635         0.542097        -2.891710
 C        -2.640176         0.849484        -2.210531
 H         1.550267         0.687878        -1.094741
 H         1.784184        -0.010082         0.512953
 H         1.692806        -1.058395        -0.804321
 H        -3.136485        -0.949895         0.229502
 H        -2.879904         0.004721         2.354305
 H        -3.568684         1.921430        -0.416742
 H        -4.757411        -0.759531        -1.378955
 H        -5.363770         0.918307        -1.500005
 H        -1.943443         0.009039        -2.147218
 H        -2.169246         1.678218        -2.792278
