19
Iteration:  2113
 C         1.352139        -0.112775         0.260407
 C        -0.066177        -0.127748        -0.101023
 C        -1.256347        -0.170490        -0.297695
 C        -2.671040        -0.054560         0.101678
 O        -2.751145         0.518029         1.423604
 C        -3.305744         0.855440        -0.894029
 C        -4.730729         0.642235        -1.425021
 O        -4.239816         0.703725        -2.831089
 C        -2.857052         0.567143        -2.345077
 H         1.451267        -0.032670         1.455855
 H         1.787841        -1.038896        -0.041464
 H         1.998480         0.665307        -0.122576
 H        -3.099184        -1.135948         0.095765
 H        -2.132032         0.109714         2.041953
 H        -3.107712         1.852286        -0.489436
 H        -5.224144        -0.282181        -1.127408
 H        -5.537542         1.381602        -1.211579
 H        -2.447604        -0.437238        -2.498077
 H        -2.122729         1.352579        -2.713504
