19
Iteration:   910
 C         1.277874        -0.194439        -0.305367
 C        -0.130863        -0.275451        -0.179559
 C        -1.318721        -0.269976         0.019732
 C        -2.758392        -0.045438         0.205378
 O        -2.864568         0.433061         1.649120
 C        -3.595381         0.843408        -0.776401
 C        -4.372429        -0.012639        -1.768628
 O        -3.751357         0.757540        -2.868483
 C        -2.943435         1.531052        -1.995545
 H         1.538023         0.343238         0.562438
 H         1.980876        -1.162609        -0.214548
 H         1.639604         0.432671        -1.152043
 H        -3.266083        -1.091120         0.285506
 H        -3.814773         0.314279         1.861199
 H        -4.178841         1.450957        -0.114794
 H        -4.089207        -1.067166        -1.797171
 H        -5.476158         0.094093        -1.810704
 H        -1.867959         1.302181        -2.073430
 H        -3.200863         2.583355        -1.955876
