19
Iteration:  4734
 C         1.561784         0.203587         0.313237
 C         0.125125        -0.064030         0.014522
 C        -1.045191        -0.475762        -0.090507
 C        -2.543144        -0.473821        -0.192330
 O        -3.188640        -0.422287         1.097254
 C        -3.204486         0.792044        -0.911276
 C        -4.695974         0.890190        -1.246479
 O        -4.368352         1.418506        -2.509485
 C        -2.958504         0.988270        -2.431207
 H         1.761964        -0.016099         1.376765
 H         2.130490        -0.457101        -0.360210
 H         1.878070         1.230434         0.068441
 H        -2.885634        -1.234391        -0.745245
 H        -3.026975        -1.317619         1.463914
 H        -2.698390         1.653525        -0.346496
 H        -5.317008        -0.157237        -1.442011
 H        -5.432017         1.454250        -0.738491
 H        -2.773617        -0.015012        -2.900078
 H        -2.315140         1.760905        -2.779244
