19
Iteration:  1332charge 0 multiplicity 1
 C         1.376768        -0.304226        -0.117489
 C        -0.125349        -0.444748        -0.271522
 C        -1.320445        -0.419326        -0.231309
 C        -2.788930        -0.057918         0.212460
 O        -2.815613         0.627246         1.514385
 C        -3.767366         0.727281        -0.672124
 C        -4.325660        -0.012219        -1.910560
 O        -3.563842         0.830341        -2.833585
 C        -3.251250         1.727892        -1.765107
 H         1.858401         0.635460        -0.618926
 H         1.541587        -0.307809         0.919406
 H         2.008127        -1.153638        -0.487106
 H        -3.424832        -0.890587         0.354046
 H        -2.312684         0.036888         2.072298
 H        -4.507210         1.295065        -0.013232
 H        -3.923835        -1.110028        -1.923935
 H        -5.476748         0.014915        -2.070965
 H        -2.196749         2.052259        -1.792983
 H        -3.754686         2.676578        -1.796373
