19
Iteration:  2079
 C         1.409490        -0.123369        -0.073315
 C        -0.090810        -0.082443        -0.161657
 C        -1.252385        -0.060759         0.092552
 C        -2.701212         0.021245         0.204141
 O        -2.901260         0.391775         1.609967
 C        -3.335890         0.861916        -0.848961
 C        -4.789974         0.708053        -1.580653
 O        -4.083453         0.673817        -2.924105
 C        -2.817855         0.476640        -2.281121
 H         1.693416        -0.413684         1.039200
 H         1.756434        -0.944408        -0.702585
 H         2.051218         0.715313        -0.317180
 H        -3.270316        -1.036620         0.052261
 H        -2.062556         0.487293         2.044247
 H        -3.067009         1.894286        -0.698861
 H        -5.055930        -0.246381        -1.431414
 H        -5.506765         1.543947        -1.505803
 H        -2.543559        -0.577120        -2.411378
 H        -2.006921         1.083234        -2.777314
