19
Iteration:  1994charge 0 multiplicity 1
 C         1.133606        -0.116527        -0.724625
 C        -0.119883        -0.038750         0.000704
 C        -1.163903        -0.055677         0.692533
 C        -2.573986        -0.005707         0.323087
 O        -3.607976         0.339135         1.294159
 C        -2.901616         0.860920        -0.865261
 C        -4.354630         0.784958        -1.322204
 O        -4.075599         0.550372        -2.722961
 C        -2.590162         0.466216        -2.385256
 H         1.823747        -0.863839        -0.114065
 H         1.004681        -0.266442        -1.812003
 H         1.648740         0.860886        -0.587363
 H        -2.814536        -1.008479         0.005338
 H        -3.635275         1.329384         1.397990
 H        -2.468258         1.897923        -0.706398
 H        -4.964199        -0.073141        -0.648799
 H        -5.133906         1.568067        -1.198902
 H        -2.278999        -0.591336        -2.656119
 H        -2.112833         1.326000        -2.953401
