19
Iteration:   501
 C         1.610603        -0.199882         0.633148
 C         0.223082         0.015563        -0.006623
 C        -1.012243         0.043897        -0.112924
 C        -2.514649        -0.105337        -0.034362
 O        -2.898760         0.372459         1.280317
 C        -3.194753         0.784843        -1.166519
 C        -4.708279         0.776090        -1.181305
 O        -4.623525         0.658926        -2.748468
 C        -3.194360         0.460886        -2.698066
 H         2.092749        -1.125283         0.331352
 H         2.326376         0.673897         0.436912
 H         1.402576        -0.367930         1.694462
 H        -2.923118        -1.171944        -0.081961
 H        -2.829610         1.328826         1.273146
 H        -2.916857         1.890573        -0.917427
 H        -5.122725        -0.139916        -0.761673
 H        -5.202356         1.717567        -0.816331
 H        -2.899232        -0.605819        -2.906879
 H        -2.797008         1.149430        -3.497193
