19
Iteration:  1036
 C         1.113915        -0.481329        -0.596595
 C        -0.309845        -0.443802        -0.389077
 C        -1.421286        -0.312180         0.066751
 C        -2.834539        -0.025107         0.474813
 O        -2.710660         0.941538         1.450785
 C        -3.947146         0.454784        -0.720637
 C        -3.741142        -0.216814        -2.112704
 O        -3.186720         0.927998        -2.679331
 C        -3.553183         1.751785        -1.477301
 H         1.650474         0.281472         0.104079
 H         1.515150        -1.306651        -0.140834
 H         1.610534        -0.511140        -1.572250
 H        -3.240083        -0.995605         0.893374
 H        -3.534227         1.478787         1.648877
 H        -4.955405         0.385765        -0.223979
 H        -3.136403        -1.117673        -2.044232
 H        -4.710206        -0.519659        -2.644755
 H        -2.742081         2.429342        -1.150781
 H        -4.447805         2.417159        -1.676999
