19
Iteration:  4306
 C         1.591837         0.011539         0.521860
 C         0.190781        -0.100092         0.268166
 C        -1.000527        -0.061717        -0.148190
 C        -2.457840        -0.412172        -0.280071
 O        -3.110188        -0.636757         0.898282
 C        -3.099033         0.782163        -1.049795
 C        -4.560982         0.993015        -1.051992
 O        -4.586838         1.425912        -2.468891
 C        -3.234310         0.866251        -2.629670
 H         1.962629         1.080008         0.255013
 H         1.758145        -0.289052         1.613938
 H         2.229883        -0.575398        -0.035112
 H        -2.506174        -1.423127        -0.882719
 H        -3.198167         0.149441         1.433698
 H        -2.643165         1.674897        -0.736883
 H        -5.110947        -0.083214        -1.006495
 H        -5.044219         1.576826        -0.212162
 H        -3.441938        -0.189955        -3.110230
 H        -2.729332         1.664253        -3.285240
