19
Iteration:  1133charge 0 multiplicity 1
 C         0.617163        -0.881797        -1.147559
 C        -0.425127        -0.358809        -0.350899
 C        -1.334911         0.068416         0.363733
 C        -2.767537         0.085538         0.711410
 O        -3.368426         1.181446         1.539884
 C        -3.397343         0.193262        -0.729303
 C        -2.940448        -0.192917        -2.155685
 O        -3.291824         1.078339        -2.767337
 C        -3.555942         1.581800        -1.347437
 H         1.617414        -0.309681        -1.268208
 H         1.032860        -1.766382        -0.531638
 H         0.373586        -1.307911        -2.132998
 H        -3.127231        -0.870385         1.165674
 H        -3.097729         0.830325         2.445186
 H        -4.461836        -0.146498        -0.743572
 H        -1.936618        -0.440921        -2.319872
 H        -3.549013        -1.045835        -2.448846
 H        -2.781751         2.223964        -0.923190
 H        -4.544802         1.943231        -1.247187
