19
Iteration:  3280charge 0 multiplicity 1
 C         1.201371        -0.151231        -0.690277
 C        -0.080690         0.060332        -0.047030
 C        -1.205396        -0.068552         0.449843
 C        -2.659059        -0.135278         0.336988
 O        -3.449753        -0.195012         1.568300
 C        -3.279457         0.906607        -0.749246
 C        -4.478099         0.598352        -1.639482
 O        -3.852977         0.957809        -2.875606
 C        -2.573833         0.938207        -2.158402
 H         1.168432        -1.334182        -0.737446
 H         1.299026         0.461591        -1.587530
 H         1.950464         0.059270         0.004387
 H        -2.935189        -1.176731        -0.019454
 H        -3.155799         0.537672         2.190293
 H        -3.307103         1.907562        -0.430094
 H        -4.763861        -0.464275        -1.587214
 H        -5.400540         1.180152        -1.479452
 H        -1.764232         0.118415        -2.477492
 H        -2.054592         1.886027        -2.497472
