19
Iteration:  1075
 C         0.956439        -0.758488        -0.895903
 C        -0.288187        -0.325092        -0.203924
 C        -1.445801        -0.098950         0.005930
 C        -2.818243         0.018771         0.594774
 O        -2.983924         1.104399         1.459110
 C        -3.750357         0.255576        -0.694141
 C        -3.388507        -0.258746        -2.111370
 O        -3.214664         1.059695        -2.644479
 C        -3.570402         1.658108        -1.387109
 H         1.614694         0.015523        -0.645985
 H         1.317154        -1.848222        -0.508112
 H         0.687970        -0.817373        -1.968139
 H        -3.025226        -0.910782         1.100138
 H        -3.921265         1.077359         1.627277
 H        -4.796853         0.100747        -0.496590
 H        -2.343620        -0.711975        -2.235583
 H        -4.145328        -0.798542        -2.691132
 H        -2.777839         2.256506        -0.889050
 H        -4.444000         2.316983        -1.536458
