19
Iteration:  2714charge 0 multiplicity 1
 C         1.543468        -0.166982         0.050065
 C         0.100783        -0.181774        -0.002409
 C        -1.114143         0.007565         0.103605
 C        -2.566753        -0.276125        -0.026166
 O        -3.259176        -0.198041         1.257003
 C        -3.203630         0.896171        -0.866660
 C        -4.632624         0.698113        -1.309354
 O        -4.285473         0.814612        -2.706026
 C        -2.944283         1.242384        -2.429343
 H         2.001343        -0.608635         0.949545
 H         2.036542        -0.632296        -0.846784
 H         1.799648         0.874755         0.190209
 H        -2.684712        -1.396943        -0.368985
 H        -3.091752         0.722856         1.462454
 H        -3.031906         1.798241        -0.206326
 H        -5.066994        -0.330486        -1.192320
 H        -5.356161         1.447039        -0.894176
 H        -2.175070         0.547062        -3.001519
 H        -2.628397         2.229997        -2.670689
