19
Iteration:  1501
 C         1.338336         0.089938        -0.309890
 C        -0.005994        -0.053463         0.158243
 C        -1.247871        -0.155340         0.220353
 C        -2.679868        -0.292970         0.088331
 O        -3.380192        -0.113461         1.371555
 C        -3.061398         0.843554        -0.869514
 C        -4.516082         0.877923        -1.324735
 O        -4.112754         0.923811        -2.765335
 C        -2.745059         0.660774        -2.425058
 H         1.495948         0.404339        -1.352955
 H         1.868144         0.889414         0.340643
 H         1.998184        -0.769389        -0.132470
 H        -2.920801        -1.334941        -0.128093
 H        -3.114147         0.807369         1.623994
 H        -2.734509         1.780572        -0.412516
 H        -4.947727        -0.098449        -1.196850
 H        -5.010831         1.791590        -0.936881
 H        -2.427282        -0.362394        -2.651219
 H        -2.024543         1.433886        -2.823547
