19
Iteration:  2364charge 0 multiplicity 1
 C         1.408731         0.266775         0.482269
 C         0.138571        -0.290655         0.106176
 C        -1.067991        -0.454473         0.016646
 C        -2.534390        -0.417396        -0.152287
 O        -3.157336         0.201977         1.050963
 C        -2.868859         0.782284        -1.194252
 C        -4.421795         0.938184        -1.066425
 O        -4.608035         0.998335        -2.540891
 C        -3.188282         0.627186        -2.679861
 H         1.616892         1.078261        -0.317651
 H         1.404256         0.769090         1.498060
 H         2.206971        -0.435270         0.440834
 H        -3.006218        -1.329535        -0.392199
 H        -2.601770        -0.194876         1.767011
 H        -2.251682         1.649292        -0.848400
 H        -4.949984         0.123302        -0.539343
 H        -4.805448         1.921220        -0.739159
 H        -3.004677        -0.310704        -3.291205
 H        -2.676441         1.259832        -3.418227
