19
Iteration:   208charge 0 multiplicity 1
 C         1.370172        -0.299609        -0.097545
 C        -0.040484        -0.056267        -0.000368
 C        -1.251129        -0.062640        -0.101535
 C        -2.647171        -0.015697         0.189673
 O        -2.892786         0.665217         1.556361
 C        -3.497584         0.798332        -0.758268
 C        -4.644662         0.215672        -1.697185
 O        -4.030811         0.602408        -2.936837
 C        -2.899572         1.020249        -2.159859
 H         1.830514         0.596148        -0.336895
 H         1.853837        -0.660637         0.895649
 H         1.692533        -1.075612        -0.787688
 H        -3.049904        -1.054665         0.280870
 H        -2.255589         0.215736         2.176653
 H        -3.765567         1.713396        -0.251049
 H        -4.725046        -0.906404        -1.651372
 H        -5.592860         0.753215        -1.495801
 H        -2.160245         0.159326        -2.314703
 H        -2.430887         1.956457        -2.456601
