19
Iteration:   445
 C         1.422452         0.161601         0.068004
 C        -0.005747        -0.310355         0.208623
 C        -1.208578        -0.344717         0.027802
 C        -2.602450        -0.058693        -0.003335
 O        -3.055848         0.464936         1.375008
 C        -3.092457         0.865841        -1.079523
 C        -4.611078         0.829527        -1.335359
 O        -4.375406         0.587505        -2.729392
 C        -2.891968         0.483690        -2.462558
 H         1.877733        -0.345550        -0.850153
 H         1.363114         1.249030        -0.135132
 H         2.072904        -0.006393         0.941522
 H        -3.243318        -0.980204        -0.114213
 H        -2.185155         0.525645         1.856524
 H        -2.629563         1.917320        -0.836971
 H        -5.012703        -0.067902        -0.824593
 H        -5.292479         1.654470        -1.071758
 H        -2.513495        -0.472044        -2.837503
 H        -2.377203         1.318255        -3.063615
