19
Iteration:   303
 C         1.026050        -0.040391        -0.770637
 C        -0.033304        -0.079527         0.179800
 C        -1.228685        -0.037218         0.440873
 C        -2.633376        -0.116658         0.335154
 O        -3.418309         0.459836         1.421383
 C        -3.133227         0.802143        -0.870704
 C        -4.516323         0.602918        -1.513252
 O        -3.911817         0.480293        -2.804146
 C        -2.510356         0.759858        -2.225675
 H         0.802289         0.498700        -1.819643
 H         1.997153         0.368498        -0.219677
 H         1.499401        -1.045800        -0.802346
 H        -2.842421        -1.163116         0.117499
 H        -3.072814         0.156002         2.320477
 H        -3.283134         1.744267        -0.262518
 H        -5.292494        -0.115227        -1.168093
 H        -5.156317         1.560061        -1.335808
 H        -1.932618        -0.162623        -2.505540
 H        -1.795045         1.586049        -2.619889
