19
Iteration:   896charge 0 multiplicity 1
 C         1.349488        -0.161419        -0.355854
 C        -0.115675        -0.365324        -0.048494
 C        -1.292387        -0.103770         0.031886
 C        -2.746154         0.003177         0.326632
 O        -2.921052         0.329964         1.639510
 C        -3.615316         0.857337        -0.686345
 C        -4.386436         0.052615        -1.829145
 O        -3.845406         0.763513        -2.936627
 C        -2.885768         1.433280        -1.999313
 H         1.936310         0.362016         0.425364
 H         1.839603        -1.180654        -0.520052
 H         1.463530         0.362773        -1.335068
 H        -3.126110        -1.058498         0.045461
 H        -3.888853         0.303626         1.843655
 H        -4.221446         1.682736        -0.232517
 H        -3.946551        -0.995040        -1.843443
 H        -5.457021         0.016251        -1.872435
 H        -1.877023         1.094735        -2.223916
 H        -2.845049         2.492753        -2.319183
