19
Iteration:   179
 C         1.485801        -0.386977         0.068728
 C         0.060833        -0.085444         0.115133
 C        -1.182559        -0.151760         0.068998
 C        -2.662587         0.011949         0.137070
 O        -2.849787         0.639555         1.423485
 C        -3.453850         0.794327        -0.905887
 C        -4.648266         0.098476        -1.614227
 O        -4.222945         0.657411        -2.863020
 C        -3.025271         1.201903        -2.368641
 H         1.977799         0.688757         0.085752
 H         1.860569        -0.888578         0.903261
 H         1.889682        -0.965913        -0.782111
 H        -3.139562        -0.974312         0.185434
 H        -1.938536         0.682084         1.813018
 H        -3.801719         1.707654        -0.432719
 H        -4.625734        -0.990224        -1.619686
 H        -5.551731         0.523493        -1.291633
 H        -2.282180         0.578835        -2.760798
 H        -2.823432         2.270328        -2.608518
