19
Iteration:  3988
 C         1.420702        -0.281863        -0.176459
 C        -0.004935        -0.251955         0.001568
 C        -1.169746         0.004254         0.053615
 C        -2.664925        -0.119793         0.042459
 O        -3.159941        -0.099819         1.380579
 C        -3.408638         0.949158        -0.748448
 C        -4.682133         0.484563        -1.552827
 O        -3.964517         0.784263        -2.805365
 C        -2.810789         1.434845        -2.091707
 H         1.872406        -1.360417        -0.397089
 H         1.751280         0.272992        -1.143309
 H         1.925944         0.348531         0.560125
 H        -2.919906        -1.086512        -0.364539
 H        -2.592302        -0.639249         1.929622
 H        -3.684029         1.858233        -0.128350
 H        -4.996823        -0.509741        -1.431173
 H        -5.505921         1.277521        -1.495080
 H        -1.912958         0.836953        -2.395131
 H        -2.807840         2.577595        -2.199261
