19
Iteration:  2238charge 0 multiplicity 1
 C         1.546775        -0.413847         0.576492
 C         0.228746         0.135312         0.151282
 C        -0.997018         0.277332        -0.006531
 C        -2.388209         0.006452        -0.229805
 O        -3.135302        -0.094702         1.035781
 C        -3.042292         1.027273        -1.159715
 C        -4.586179         1.002833        -1.167333
 O        -4.699436         0.687080        -2.577139
 C        -3.208277         0.460038        -2.611428
 H         2.165022         0.202467         1.230707
 H         1.348259        -1.261309         1.351758
 H         2.076631        -0.748838        -0.370646
 H        -2.486554        -0.909763        -0.785952
 H        -2.545884        -0.134903         1.774482
 H        -2.501447         1.992011        -1.173429
 H        -4.976308         0.247118        -0.456733
 H        -5.126531         1.968724        -0.969976
 H        -3.122290        -0.674724        -2.681435
 H        -2.841281         1.065517        -3.427628
