19
Iteration:  1757charge 0 multiplicity 1
 C         1.429136        -0.549553         0.587228
 C         0.228261         0.134551         0.169533
 C        -0.974076         0.413753        -0.039688
 C        -2.370132         0.081606        -0.196850
 O        -2.955006         0.210280         1.102967
 C        -3.122925         0.914000        -1.188154
 C        -4.629344         0.701273        -1.204896
 O        -4.697099         0.731324        -2.638437
 C        -3.222732         0.416016        -2.605710
 H         1.494011        -1.420359         0.058070
 H         2.396840         0.059885         0.686030
 H         1.210767        -1.007444         1.566295
 H        -2.395125        -1.088568        -0.483600
 H        -2.217897         0.564069         1.673956
 H        -2.954326         2.026890        -1.132430
 H        -4.837691        -0.299142        -0.738224
 H        -5.281299         1.564429        -0.771648
 H        -3.095844        -0.704956        -2.700838
 H        -2.662619         1.080841        -3.384580
