19
Iteration:  4753
 C         1.516968         0.151773         0.317523
 C         0.096972        -0.151678         0.145704
 C        -1.075567        -0.322927        -0.090458
 C        -2.511432        -0.426801        -0.236862
 O        -3.208213        -0.486125         1.034109
 C        -3.063409         0.812413        -0.971638
 C        -4.608190         0.875312        -1.139887
 O        -4.445035         1.368009        -2.552292
 C        -3.032785         1.001659        -2.480714
 H         1.685976         0.187310         1.432060
 H         2.220064        -0.558649        -0.212692
 H         1.686027         1.094061        -0.113410
 H        -2.756573        -1.396073        -0.926758
 H        -2.624970        -0.932428         1.656669
 H        -2.826530         1.667101        -0.326346
 H        -5.128291         0.001785        -1.039094
 H        -5.104501         1.617651        -0.466116
 H        -2.817711         0.086825        -3.073354
 H        -2.472267         2.004340        -2.696910
