19
Iteration:  2097
 C         1.366185        -0.149209         0.135260
 C        -0.074218        -0.065962        -0.166662
 C        -1.263676        -0.084266        -0.235300
 C        -2.685109        -0.053985         0.242194
 O        -2.824449         0.458532         1.597981
 C        -3.353834         0.851758        -0.907120
 C        -4.703696         0.684249        -1.550009
 O        -4.172687         0.693383        -2.867464
 C        -2.805597         0.519774        -2.300277
 H         1.500034        -0.253026         1.155383
 H         1.876678        -1.110513        -0.273570
 H         1.695623         0.830908        -0.284183
 H        -3.082171        -0.994071         0.207295
 H        -1.975303         0.180031         1.915021
 H        -3.181026         1.908678        -0.656313
 H        -5.350944        -0.368511        -1.348255
 H        -5.418685         1.531132        -1.363025
 H        -2.495711        -0.540828        -2.378265
 H        -2.082639         1.130596        -2.808079
