19
Iteration:   579
 C         1.626587        -0.381181         0.824468
 C         0.346192         0.105407         0.288931
 C        -0.792958         0.402509        -0.094693
 C        -2.371469         0.108467        -0.285054
 O        -3.091434         0.173482         0.977196
 C        -3.065282         0.880964        -1.343383
 C        -4.611445         0.859617        -1.100135
 O        -4.876662         0.559466        -2.485256
 C        -3.399691         0.339686        -2.803021
 H         1.649816        -1.410615         0.868423
 H         2.511543        -0.046962         0.187953
 H         1.767215         0.117920         1.780121
 H        -2.342331        -0.968245        -0.646588
 H        -2.519522        -0.234525         1.673605
 H        -2.797560         1.958677        -1.388208
 H        -4.966501         0.160374        -0.325509
 H        -5.026078         1.857468        -0.775283
 H        -3.249496        -0.725513        -2.976636
 H        -3.046317         0.950377        -3.650606
