19
Iteration:  3119charge 0 multiplicity 1
 C         1.421461        -0.201405         0.105477
 C         0.037034        -0.178973        -0.182699
 C        -1.178300        -0.038220        -0.119416
 C        -2.660182        -0.144717        -0.001833
 O        -2.979513         0.015113         1.419089
 C        -3.365763         1.021335        -0.780414
 C        -4.758128         0.743326        -1.483437
 O        -4.054697         0.542008        -2.780372
 C        -2.885922         1.170969        -2.209442
 H         2.169291        -0.151293        -0.720381
 H         1.749118         0.667502         0.843171
 H         1.611489        -1.307703         0.621881
 H        -3.106794        -1.152615        -0.362266
 H        -2.875055        -0.824442         1.875688
 H        -3.356250         1.973544        -0.166313
 H        -5.296347        -0.083681        -0.965016
 H        -5.454896         1.609777        -1.665074
 H        -1.993387         0.796204        -2.630386
 H        -2.923643         2.245246        -2.520688
