19
Iteration:  1716charge 0 multiplicity 1
 C         1.478856        -0.483667         0.804445
 C         0.271713         0.111215         0.304657
 C        -0.846407         0.406655        -0.189845
 C        -2.311231         0.077607        -0.250157
 O        -2.870758        -0.013013         1.072468
 C        -3.136543         0.965426        -1.251262
 C        -4.677036         0.990239        -1.203490
 O        -4.840421         0.633837        -2.642010
 C        -3.357414         0.379130        -2.658491
 H         1.807849        -1.117041        -0.059977
 H         2.351267         0.154002         1.020009
 H         1.176276        -1.036520         1.717455
 H        -2.458242        -0.878492        -0.662255
 H        -2.230307         0.459084         1.655231
 H        -2.514640         1.829107        -1.231369
 H        -5.240801         0.241423        -0.619621
 H        -5.129086         1.921440        -0.892366
 H        -3.297083        -0.687273        -2.627733
 H        -2.868672         0.990371        -3.395329
