19
Iteration:  3277
 C         1.166731        -0.167988        -0.680732
 C        -0.094409         0.081045        -0.045173
 C        -1.223655        -0.079703         0.413625
 C        -2.644679        -0.145635         0.336697
 O        -3.447884        -0.192615         1.575528
 C        -3.273802         0.932703        -0.760206
 C        -4.480360         0.562251        -1.623283
 O        -3.849063         0.952167        -2.873828
 C        -2.551984         0.943971        -2.163433
 H         1.133523        -1.299457        -0.764325
 H         1.306201         0.512479        -1.525301
 H         2.087403         0.063365        -0.043022
 H        -2.927974        -1.056715         0.025502
 H        -3.158494         0.464251         2.202921
 H        -3.212354         1.958638        -0.361698
 H        -4.762858        -0.516037        -1.596878
 H        -5.331328         1.253229        -1.518090
 H        -1.802790         0.228988        -2.400481
 H        -2.064855         1.877962        -2.486345
