19
Iteration:  1811
 C         1.611349        -0.304902         0.336091
 C         0.140965        -0.305408         0.215844
 C        -0.991751        -0.013330         0.116838
 C        -2.497203        -0.002183         0.004270
 O        -3.051935         0.582103         1.177045
 C        -3.159356         0.911461        -1.098908
 C        -4.718456         0.610253        -1.287439
 O        -4.538636         0.605396        -2.772000
 C        -3.116873         0.727913        -2.633659
 H         2.002040        -1.114792        -0.202192
 H         2.040967         0.627485        -0.250398
 H         1.908109        -0.229027         1.394890
 H        -2.793488        -0.968777        -0.107401
 H        -2.548216         0.072848         1.880993
 H        -2.999019         1.920128        -0.646463
 H        -5.070573        -0.306653        -0.860154
 H        -5.555103         1.331545        -0.945285
 H        -2.708393        -0.291357        -2.918422
 H        -2.767900         1.644239        -3.196167
