19
Iteration:  3317charge 0 multiplicity 1
 C         1.238626        -0.068663        -0.525200
 C        -0.032155        -0.170097         0.017588
 C        -1.200427         0.015337         0.176736
 C        -2.680377        -0.143844         0.258168
 O        -3.436876        -0.091660         1.434354
 C        -3.243330         0.750953        -0.771714
 C        -4.551359         0.651350        -1.533755
 O        -3.897828         1.057517        -2.725306
 C        -2.591538         0.805426        -2.153845
 H         1.743739        -0.970989        -0.510762
 H         1.394512         0.286974        -1.567398
 H         1.924359         0.620508         0.112865
 H        -2.712416        -1.245875        -0.247865
 H        -3.455762         0.880204         1.664575
 H        -3.282808         1.793391        -0.250249
 H        -4.757859        -0.418567        -1.657862
 H        -5.407078         1.274646        -1.189188
 H        -2.221944        -0.221725        -2.547922
 H        -1.854623         1.623544        -2.277161
