19
Iteration:  4300
 C         1.564047         0.038668         0.538501
 C         0.154051        -0.093515         0.244994
 C        -0.959674        -0.092690        -0.149237
 C        -2.432829        -0.394322        -0.340967
 O        -3.155640        -0.609835         0.862501
 C        -3.085579         0.770121        -1.025049
 C        -4.548231         0.950819        -1.047746
 O        -4.589628         1.429272        -2.427601
 C        -3.263706         0.841239        -2.601876
 H         1.904862         1.041308         0.430086
 H         1.807802        -0.313867         1.524834
 H         2.332269        -0.637956        -0.081214
 H        -2.429401        -1.320272        -0.863628
 H        -3.155695         0.149835         1.495641
 H        -2.510292         1.752360        -0.856990
 H        -5.126868         0.063746        -0.893834
 H        -4.892126         1.757624        -0.319098
 H        -3.203103        -0.110492        -3.077180
 H        -2.662938         1.420800        -3.272974
