19
Iteration:  2041charge 0 multiplicity 1
 C         1.374749        -0.128947        -0.425562
 C         0.031831        -0.118600         0.090842
 C        -1.224319        -0.046727         0.192240
 C        -2.722708         0.011766         0.302321
 O        -3.365126         0.393193         1.521581
 C        -3.123475         0.841851        -0.914997
 C        -4.561699         0.711875        -1.443400
 O        -4.068576         0.653758        -2.803667
 C        -2.710672         0.471566        -2.347456
 H         2.119408        -0.580560         0.168495
 H         1.189409        -0.719845        -1.457263
 H         1.744763         0.894240        -0.784872
 H        -2.944012        -0.976566         0.158387
 H        -2.981592         1.287749         1.753706
 H        -2.805321         1.893273        -0.694114
 H        -5.085842        -0.361613        -1.252562
 H        -5.424339         1.371505        -1.187980
 H        -2.309334        -0.536651        -2.429240
 H        -2.042369         1.227297        -2.719519
