19
Iteration:  2721charge 0 multiplicity 1
 C         1.594236        -0.172927         0.091311
 C         0.091532        -0.143672         0.056498
 C        -1.112772         0.047290         0.121686
 C        -2.531621        -0.282894        -0.038947
 O        -3.258863        -0.253371         1.261240
 C        -3.182969         0.893648        -0.921375
 C        -4.703884         0.702880        -1.263624
 O        -4.331455         0.880036        -2.762656
 C        -2.920316         1.153627        -2.411477
 H         2.082236        -0.712814         0.874571
 H         1.961912        -0.650762        -0.847018
 H         1.989309         0.907644        -0.187118
 H        -2.806505        -1.193914        -0.520101
 H        -3.109222         0.633536         1.589897
 H        -2.975659         1.794381        -0.388419
 H        -5.067183        -0.271075        -0.905952
 H        -5.278313         1.571981        -1.009857
 H        -2.334175         0.492725        -2.998800
 H        -2.547268         2.174655        -2.716557
