19
Iteration:  3351
 C         1.370498         0.012249        -0.264983
 C        -0.070108        -0.075669        -0.085022
 C        -1.200589        -0.409990         0.207824
 C        -2.684476        -0.229098         0.167854
 O        -3.280782        -0.042489         1.473800
 C        -3.182042         0.850781        -0.818078
 C        -4.546166         0.730276        -1.480891
 O        -4.065704         1.094561        -2.772390
 C        -2.721506         0.815607        -2.326285
 H         1.756424        -0.798143         0.219553
 H         1.670439         0.131531        -1.338051
 H         1.773549         0.946718         0.332389
 H        -3.210438        -1.290792        -0.137482
 H        -3.094857         0.918485         1.740649
 H        -2.963047         1.887223        -0.320196
 H        -4.954912        -0.302121        -1.573346
 H        -5.433654         1.311643        -1.156644
 H        -2.403374        -0.266884        -2.649527
 H        -1.894828         1.459321        -2.662010
