19
Iteration:  1372
 C         1.349001        -0.378350        -0.200539
 C        -0.126168        -0.284236        -0.105421
 C        -1.319960         0.000461        -0.146604
 C        -2.742023        -0.076696         0.184095
 O        -2.967703         0.313453         1.593471
 C        -3.594450         0.791723        -0.716222
 C        -4.407174         0.096917        -1.815745
 O        -3.778246         0.820101        -2.884053
 C        -2.961729         1.564773        -1.924752
 H         1.713465         0.358192        -0.866047
 H         1.796416        -0.059392         0.823929
 H         1.770778        -1.312115        -0.567894
 H        -3.012620        -1.214411         0.116099
 H        -2.147451         0.020434         2.074733
 H        -4.259230         1.436172        -0.085422
 H        -4.293107        -0.982969        -1.834281
 H        -5.465442         0.099182        -1.867744
 H        -1.850493         1.496576        -2.044634
 H        -3.386644         2.618409        -1.923766
