19
Iteration:  2438charge 0 multiplicity 1
 C         1.439092         0.193535         0.186866
 C         0.020149        -0.056789        -0.149908
 C        -1.190261        -0.124811        -0.078087
 C        -2.595452        -0.253217        -0.011635
 O        -3.036910        -0.159810         1.432710
 C        -3.260173         0.780044        -0.946172
 C        -4.678786         1.005545        -1.365717
 O        -4.193823         1.150460        -2.740597
 C        -2.954316         0.361273        -2.363693
 H         2.092093         0.168248        -0.649000
 H         1.646288         1.060028         0.972289
 H         1.781458        -0.625041         0.850994
 H        -3.043973        -1.311594        -0.245543
 H        -2.274704        -0.575377         1.876271
 H        -2.848778         1.772759        -0.736970
 H        -5.378761         0.184723        -1.520075
 H        -5.318245         1.783661        -0.967950
 H        -2.986613        -0.685491        -2.549920
 H        -2.052135         0.680693        -2.892827
