19
Iteration:  3547
 C         1.512831        -0.328115         0.701953
 C         0.159255        -0.150343         0.315642
 C        -0.920248         0.191392        -0.088787
 C        -2.308433        -0.070621        -0.331091
 O        -3.034098        -0.298609         0.840970
 C        -3.012071         1.006192        -1.183314
 C        -4.521184         1.207055        -1.097227
 O        -4.794015         0.650505        -2.402300
 C        -3.374957         0.703177        -2.718749
 H         1.821531         0.251067         1.694604
 H         1.686198        -1.403645         1.018463
 H         2.175284         0.349452         0.031379
 H        -2.322482        -1.099001        -1.037685
 H        -2.885950         0.408689         1.509915
 H        -2.371397         1.857986        -1.044686
 H        -4.948478         0.712040        -0.245286
 H        -4.746270         2.345264        -1.134479
 H        -3.012230        -0.232447        -3.189366
 H        -3.293069         1.619312        -3.336441
