19
Iteration:     8
 C         1.496499        -0.098809         0.138803
 C         0.096524        -0.092701         0.050338
 C        -1.125714        -0.035799        -0.009756
 C        -2.587749        -0.040650        -0.017361
 O        -3.155342         0.130343         1.340741
 C        -3.133815         1.002773        -0.987853
 C        -4.670391         0.835357        -1.270810
 O        -4.389820         0.491389        -2.698608
 C        -2.916860         0.673423        -2.516584
 H         1.690805        -0.267228         1.177618
 H         2.084543        -1.082906        -0.295396
 H         1.860472         0.871603        -0.192774
 H        -3.019801        -1.020641        -0.236170
 H        -2.688040         0.854233         1.736692
 H        -2.635238         1.980304        -0.709213
 H        -5.048608        -0.010717        -0.716527
 H        -5.383912         1.772137        -1.410243
 H        -2.233900        -0.185313        -2.524372
 H        -2.525770         1.369318        -3.270803
