19
Iteration:  1936
 C         1.250074        -0.062203        -0.594258
 C        -0.107744        -0.006433        -0.050287
 C        -1.315754        -0.105389         0.359590
 C        -2.769722        -0.025920         0.279497
 O        -3.325185         0.259638         1.584354
 C        -3.150045         1.001511        -0.842446
 C        -4.516783         1.053500        -1.638781
 O        -3.948291         0.389025        -2.758221
 C        -2.626721         0.393083        -2.165574
 H         1.879328        -1.044577        -0.585281
 H         1.112167         0.195453        -1.605886
 H         1.860741         0.766228        -0.219046
 H        -3.028243        -0.993735        -0.142008
 H        -2.560538         0.265694         2.195670
 H        -2.691704         1.940097        -0.589952
 H        -5.288004         0.434661        -1.039860
 H        -4.795180         2.024591        -2.110836
 H        -2.196007        -0.662175        -2.034539
 H        -1.795508         0.872783        -2.764989
