19
Iteration:  2250charge 0 multiplicity 1
 C         1.438525        -0.353979         0.564633
 C         0.232828         0.089299         0.166879
 C        -0.963763         0.349733         0.026781
 C        -2.381273        -0.026698        -0.199490
 O        -3.051419        -0.167793         1.023400
 C        -3.066932         0.970205        -1.191052
 C        -4.631465         1.131218        -1.180050
 O        -4.641257         0.691327        -2.563946
 C        -3.287074         0.429278        -2.622516
 H         2.029504         0.432671         0.917052
 H         1.118591        -1.297671         1.227621
 H         2.116540        -0.927415        -0.168834
 H        -2.321958        -1.079800        -0.552597
 H        -2.303517        -0.202597         1.689558
 H        -2.619179         1.950660        -1.015437
 H        -5.231642         0.449214        -0.571000
 H        -5.001218         2.163683        -1.026945
 H        -2.797627        -0.632363        -2.737407
 H        -2.720319         0.866589        -3.429389
