19
Iteration:  4021
 C         1.489832        -0.384553        -0.045988
 C         0.046419        -0.033562        -0.035295
 C        -1.158307         0.081212        -0.001715
 C        -2.644315        -0.135148        -0.003901
 O        -3.196574        -0.206924         1.303899
 C        -3.370724         1.020650        -0.777874
 C        -4.622351         0.529238        -1.420978
 O        -4.096589         0.752901        -2.750685
 C        -2.853350         1.403713        -2.185912
 H         1.624328        -1.447939         0.398685
 H         1.771496        -0.201524        -1.127021
 H         2.032573         0.229966         0.650878
 H        -2.885131        -0.958026        -0.565600
 H        -2.866805        -1.087120         1.604862
 H        -3.283011         1.849730        -0.159513
 H        -5.007981        -0.440461        -1.158589
 H        -5.434043         1.315427        -1.370860
 H        -1.956810         0.918791        -2.625020
 H        -2.661429         2.468921        -2.364423
