19
Iteration:  1388
 C         1.370287        -0.389636        -0.235163
 C        -0.042103        -0.071931        -0.088490
 C        -1.240410        -0.059946        -0.051462
 C        -2.724743        -0.029551         0.242669
 O        -3.018522         0.195403         1.651152
 C        -3.645376         0.872954        -0.774523
 C        -4.504737         0.069780        -1.845978
 O        -3.827483         0.831844        -2.938723
 C        -2.896875         1.501176        -1.927756
 H         1.777363         0.235341        -1.104997
 H         1.930930        -0.232667         0.612243
 H         1.297049        -1.486036        -0.408086
 H        -3.061738        -1.034067        -0.009693
 H        -2.159525         0.104208         2.161742
 H        -4.181244         1.538143        -0.066036
 H        -4.224300        -1.022230        -2.011148
 H        -5.607190         0.398108        -1.797759
 H        -1.949353         0.974404        -2.101434
 H        -2.780713         2.548226        -2.027738
