19
Iteration:   416
 C         1.373723         0.152118        -0.226291
 C        -0.023840        -0.176465         0.109865
 C        -1.231314        -0.227417         0.250481
 C        -2.708446        -0.182814         0.146494
 O        -3.115513         0.386672         1.510193
 C        -3.095182         0.852083        -0.961137
 C        -4.571805         0.999089        -1.477775
 O        -4.250112         0.518530        -2.845469
 C        -2.811972         0.445660        -2.399278
 H         1.516700        -0.204649        -1.213934
 H         1.604903         1.314509        -0.281026
 H         2.200778        -0.108804         0.451827
 H        -3.161102        -1.163053        -0.020632
 H        -2.604552        -0.169836         2.150323
 H        -2.673560         1.728995        -0.631152
 H        -5.265687         0.336963        -0.929646
 H        -5.006755         2.040480        -1.424704
 H        -2.424390        -0.599238        -2.581762
 H        -2.226771         1.149878        -2.981401
