19
Iteration:  4012charge 0 multiplicity 1
 C         1.439893        -0.353051        -0.084633
 C         0.017672        -0.115237         0.000267
 C        -1.210751         0.139023        -0.006765
 C        -2.635573        -0.157587        -0.023612
 O        -3.176335        -0.172446         1.333581
 C        -3.295208         0.976640        -0.724552
 C        -4.610199         0.582477        -1.467862
 O        -4.049118         0.759656        -2.788154
 C        -2.888864         1.360618        -2.160300
 H         1.678525        -1.474052         0.097729
 H         1.938203        -0.153999        -1.098580
 H         1.961005         0.286290         0.556674
 H        -2.877155        -1.141666        -0.506405
 H        -2.882285        -1.007983         1.783628
 H        -3.555579         1.884276        -0.028977
 H        -4.728157        -0.447358        -1.371379
 H        -5.508289         1.239167        -1.229438
 H        -1.931452         0.859358        -2.583289
 H        -2.999502         2.529158        -2.263059
