19
Iteration:  4341
 C         1.613721        -0.043758         0.449125
 C         0.183777        -0.021367         0.163572
 C        -1.000122        -0.237033        -0.003670
 C        -2.441786        -0.303764        -0.215002
 O        -3.010507        -0.669375         0.999306
 C        -3.188979         0.862219        -0.998911
 C        -4.724141         0.898324        -1.204247
 O        -4.568429         1.422270        -2.573623
 C        -3.180325         0.977008        -2.551225
 H         2.127972         0.867250         0.016976
 H         1.735692         0.151228         1.546770
 H         1.998859        -1.032302         0.135053
 H        -2.700309        -1.164669        -0.844227
 H        -2.710773         0.021064         1.592736
 H        -3.002013         1.737883        -0.440237
 H        -5.179353        -0.185243        -1.365199
 H        -5.356816         1.577513        -0.457907
 H        -3.071958        -0.066984        -3.128225
 H        -2.439765         1.627212        -3.074304
