19
Iteration:   558
 C         1.518744        -0.361277         0.760933
 C         0.230091         0.057432         0.336855
 C        -0.879505         0.360903        -0.020449
 C        -2.252782         0.137925        -0.322346
 O        -2.889406         0.150106         1.008083
 C        -3.069950         1.043448        -1.270096
 C        -4.654897         0.797232        -1.170891
 O        -4.852934         0.610916        -2.639378
 C        -3.445480         0.261235        -2.643330
 H         1.530884        -1.378108         0.550317
 H         2.373873         0.089150         0.089210
 H         1.787786        -0.131053         1.806790
 H        -2.325519        -0.932108        -0.709622
 H        -2.302039         0.460925         1.733494
 H        -2.876508         2.042813        -1.551065
 H        -4.846785        -0.147943        -0.632519
 H        -5.320599         1.562911        -0.694686
 H        -3.204776        -0.826421        -2.534955
 H        -3.014470         0.694459        -3.540891
