19
Iteration:  1700charge 0 multiplicity 1
 C         1.560867        -0.420439         0.842382
 C         0.304552         0.099924         0.311431
 C        -0.879396         0.151548        -0.123006
 C        -2.314066         0.075500        -0.328136
 O        -2.887598        -0.011822         0.994015
 C        -3.142522         1.029871        -1.280611
 C        -4.726000         1.062809        -1.175773
 O        -4.802724         0.630457        -2.572752
 C        -3.415595         0.389144        -2.657686
 H         2.200081        -0.951739         0.130403
 H         2.265105         0.396821         1.161451
 H         1.359992        -0.981744         1.773984
 H        -2.431938        -1.081830        -0.806395
 H        -2.325498         0.562217         1.515867
 H        -2.946626         2.142772        -1.301474
 H        -5.116115         0.376243        -0.376674
 H        -5.311308         2.080035        -1.088725
 H        -3.066025        -0.671967        -2.713256
 H        -2.955872         0.734122        -3.635358
