19
Iteration:  4317
 C         1.633402        -0.009237         0.513109
 C         0.153025        -0.096666         0.227574
 C        -1.005234        -0.084896        -0.074883
 C        -2.430777        -0.375957        -0.292320
 O        -3.060695        -0.700698         1.022764
 C        -3.072641         0.820123        -1.109828
 C        -4.663266         0.954030        -1.104109
 O        -4.598010         1.444781        -2.483070
 C        -3.253015         0.916745        -2.647837
 H         2.013125         1.039959         0.240441
 H         1.888481        -0.062756         1.613051
 H         2.056612        -0.764198        -0.036843
 H        -2.639193        -1.354087        -0.891276
 H        -3.151285         0.198705         1.415422
 H        -2.648187         1.672869        -0.667301
 H        -5.139021        -0.095695        -1.103754
 H        -5.219657         1.683654        -0.475854
 H        -3.224487        -0.117933        -3.236819
 H        -2.452506         1.561554        -3.160866
