19
Iteration:  2220
 C         1.624725        -0.397939         0.549339
 C         0.292670         0.067550         0.272236
 C        -0.925061         0.077545        -0.046657
 C        -2.419589         0.062980        -0.197233
 O        -3.236523         0.077851         1.005406
 C        -3.083524         1.045046        -1.227391
 C        -4.603362         0.861650        -1.084626
 O        -4.674531         0.672918        -2.569749
 C        -3.251933         0.555867        -2.657526
 H         2.099215         0.312314         1.226364
 H         1.553452        -1.377578         1.048337
 H         2.130634        -0.513084        -0.390671
 H        -2.651742        -0.950020        -0.799045
 H        -2.660630         0.005121         1.756008
 H        -2.700414         2.025946        -0.990974
 H        -4.824118        -0.103505        -0.696402
 H        -5.096474         1.765351        -0.776936
 H        -2.821530        -0.459505        -2.739642
 H        -2.785229         1.180684        -3.438572
