19
Iteration:  4815
 C         1.682383        -0.068615         0.520288
 C         0.217488        -0.049793         0.159974
 C        -0.965973        -0.212567        -0.095275
 C        -2.453079        -0.368287        -0.364559
 O        -3.243191        -0.695533         0.800196
 C        -3.072069         1.081199        -0.927294
 C        -4.637064         1.134361        -1.017064
 O        -4.601884         1.027110        -2.486488
 C        -3.217655         1.036873        -2.519325
 H         1.856602         0.510042         1.441543
 H         2.106388        -1.053157         0.773380
 H         2.370209         0.454601        -0.202391
 H        -2.649530        -1.079138        -1.088921
 H        -3.239339         0.081261         1.361070
 H        -2.551198         1.971088        -0.486900
 H        -5.179116         0.104352        -0.665878
 H        -5.090070         2.154671        -0.878466
 H        -2.615903         0.149480        -2.875191
 H        -2.860133         1.904378        -3.014810
