19
Iteration:  1041
 C         1.101051        -0.532525        -0.619925
 C        -0.308183        -0.419065        -0.390314
 C        -1.453352        -0.274150         0.115738
 C        -2.828000        -0.015254         0.467722
 O        -2.726961         0.952881         1.463197
 C        -3.912547         0.424616        -0.739671
 C        -3.723544        -0.231162        -2.098006
 O        -3.187323         0.968752        -2.654779
 C        -3.574555         1.723402        -1.490986
 H         1.604295         0.286867        -0.131688
 H         1.558690        -1.490501        -0.083035
 H         1.514099        -0.372208        -1.654177
 H        -3.223712        -0.926626         0.902983
 H        -3.472564         1.512630         1.642464
 H        -4.897162         0.299076        -0.316589
 H        -2.976986        -1.117745        -2.258378
 H        -4.623603        -0.518504        -2.654589
 H        -2.708849         2.281343        -1.093266
 H        -4.425575         2.373883        -1.739718
