19
Iteration:  4352charge 0 multiplicity 1
 C         1.621705        -0.026403         0.454231
 C         0.193592        -0.026183         0.129493
 C        -1.040364        -0.177947        -0.108112
 C        -2.498971        -0.367856        -0.268913
 O        -3.081483        -0.614227         1.030451
 C        -3.169671         0.907402        -0.925107
 C        -4.759413         0.829829        -1.221238
 O        -4.530395         1.395830        -2.565187
 C        -3.111310         1.013181        -2.480332
 H         2.227765         0.620991        -0.240308
 H         1.905529         0.070059         1.530487
 H         2.109290        -0.999123         0.240804
 H        -2.593726        -1.288187        -0.910151
 H        -2.540612        -0.219484         1.739952
 H        -2.793061         1.825930        -0.582920
 H        -5.162410        -0.278903        -1.193560
 H        -5.609475         1.492458        -0.739180
 H        -2.946625        -0.105776        -2.868164
 H        -2.355529         1.716277        -2.913375
