19
Iteration:  3579
 C         1.574982        -0.326228         0.822494
 C         0.316391         0.063538         0.090552
 C        -0.903497        -0.059019        -0.154688
 C        -2.425997        -0.068463        -0.342028
 O        -3.107551        -0.349245         0.880439
 C        -3.054565         1.180989        -1.126121
 C        -4.596740         1.272235        -1.121994
 O        -4.732031         0.585346        -2.380785
 C        -3.319048         0.713894        -2.670641
 H         1.530042         0.387928         1.765605
 H         1.452022        -1.385600         1.193323
 H         2.407609        -0.371686         0.125264
 H        -2.644913        -0.985118        -1.069628
 H        -2.734352         0.279460         1.546993
 H        -2.396337         1.991206        -1.029223
 H        -4.978520         0.708482        -0.274407
 H        -4.921847         2.365164        -1.145212
 H        -2.874141        -0.183187        -3.002983
 H        -3.225624         1.239935        -3.609563
