19
Iteration:  1319
 C         1.324010        -0.332215        -0.125410
 C        -0.170649        -0.393424        -0.252671
 C        -1.411808        -0.415302        -0.254127
 C        -2.816768        -0.127316         0.314629
 O        -2.702650         0.693759         1.475513
 C        -3.791783         0.717757        -0.689969
 C        -4.223552        -0.062238        -1.971173
 O        -3.516905         0.854495        -2.846035
 C        -3.299247         1.762974        -1.712358
 H         1.733668         0.599247        -0.525820
 H         1.665120        -0.356291         0.899159
 H         1.647950        -1.218878        -0.651642
 H        -3.081205        -1.150110         0.512358
 H        -2.183819         0.293615         2.224081
 H        -4.690551         0.909341        -0.000809
 H        -4.062745        -1.175815        -2.343018
 H        -5.359365         0.188615        -2.059890
 H        -2.199649         1.893214        -1.559575
 H        -3.961142         2.619383        -1.807414
