19
Iteration:  1904charge 0 multiplicity 1
 C         1.272340        -0.027552        -0.297257
 C        -0.191746        -0.093598        -0.245729
 C        -1.393130        -0.154769         0.019007
 C        -2.783768        -0.026558         0.291551
 O        -3.147792         0.385963         1.672364
 C        -3.191611         0.928830        -0.821038
 C        -4.494407         0.974270        -1.595286
 O        -3.971547         0.369094        -2.784325
 C        -2.626741         0.467668        -2.233906
 H         1.907119        -1.036326        -0.387862
 H         1.511833         0.421097        -1.229840
 H         1.575851         0.678495         0.478223
 H        -3.150094        -0.977638         0.180061
 H        -2.455441        -0.024286         2.179037
 H        -2.810442         1.895053        -0.501324
 H        -5.490791         0.658560        -1.088470
 H        -4.834565         1.951519        -1.869721
 H        -2.182825        -0.580227        -2.191480
 H        -1.966286         1.267152        -2.702542
