19
Iteration:  4877charge 0 multiplicity 1
 C         1.510697        -0.214887         0.611014
 C         0.088487        -0.049496         0.249305
 C        -1.023407        -0.159742        -0.259939
 C        -2.461756        -0.139825        -0.410792
 O        -3.026260        -0.689956         0.748895
 C        -3.107470         1.237414        -0.931433
 C        -4.593680         1.090638        -1.008230
 O        -4.589235         0.760012        -2.409107
 C        -3.161471         1.145453        -2.510504
 H         1.862734         0.710610         1.014116
 H         1.516552        -0.986817         1.337474
 H         2.127103        -0.459846        -0.353836
 H        -2.734866        -0.987603        -1.215222
 H        -2.330880        -0.587237         1.398414
 H        -2.525019         2.209761        -0.601016
 H        -5.033728         0.334073        -0.344430
 H        -5.130494         2.132144        -0.812607
 H        -2.436350         0.525407        -3.136233
 H        -3.205152         2.211609        -3.130745
