19
Iteration:  4859charge 0 multiplicity 1
 C         1.480180        -0.193237         0.595818
 C         0.127792        -0.078181         0.131858
 C        -1.044726         0.002945        -0.111495
 C        -2.476979        -0.192220        -0.455236
 O        -3.062742        -0.769856         0.815379
 C        -3.031553         1.133882        -1.029334
 C        -4.589076         1.180766        -0.978840
 O        -4.576242         0.798527        -2.436956
 C        -3.200129         1.157181        -2.498823
 H         1.804585         0.700058         1.164779
 H         1.616963        -1.101986         1.215562
 H         2.132747        -0.153428        -0.293186
 H        -2.613862        -0.887198        -1.195061
 H        -2.519484        -0.430018         1.530691
 H        -2.456282         1.813857        -0.373995
 H        -4.937564         0.140928        -0.503945
 H        -4.916607         2.144627        -0.823635
 H        -2.801457         0.322053        -3.128963
 H        -2.994446         1.999673        -3.031104
