19
Iteration:   531charge 0 multiplicity 1
 C         1.591415        -0.333656         0.710765
 C         0.191975         0.055262         0.345092
 C        -0.887435         0.264306        -0.225281
 C        -2.345110         0.086344        -0.218389
 O        -2.842779         0.225955         1.135165
 C        -3.217331         0.900326        -1.193785
 C        -4.761611         0.780636        -1.152211
 O        -4.705102         0.679601        -2.737357
 C        -3.339272         0.297537        -2.637766
 H         1.762572        -1.380081         0.267544
 H         2.283369         0.261428         0.261849
 H         1.765690        -0.313951         1.779611
 H        -2.483085        -0.978045        -0.443802
 H        -2.639307         1.039948         1.646672
 H        -3.069010         2.013734        -1.402827
 H        -5.152258        -0.164367        -0.736621
 H        -5.326002         1.602947        -0.738633
 H        -3.112556        -0.771436        -2.605016
 H        -2.769161         0.763247        -3.471201
