19
Iteration:   870charge 0 multiplicity 1
 C         1.287877        -0.252954        -0.480594
 C        -0.092178        -0.130292         0.047257
 C        -1.260230         0.073202         0.156573
 C        -2.678199        -0.021902         0.271452
 O        -3.058726         0.251886         1.702207
 C        -3.491541         0.741876        -0.779166
 C        -4.456265         0.079440        -1.784616
 O        -3.925081         0.871894        -2.875691
 C        -2.728706         1.245256        -2.097647
 H         1.950663         0.133980         0.392586
 H         1.612093        -1.212650        -0.656257
 H         1.504310         0.325404        -1.378739
 H        -2.852193        -1.045473         0.001881
 H        -4.031047         0.131191         1.751149
 H        -3.973938         1.668052        -0.400556
 H        -4.188550        -0.961152        -2.040682
 H        -5.574289         0.210496        -1.580256
 H        -1.818865         0.786120        -2.547011
 H        -2.553884         2.340533        -2.272349
