19
Iteration:   679
 C         1.346844         0.317266         0.454060
 C         0.040241        -0.247651         0.004922
 C        -1.189089        -0.455385        -0.225257
 C        -2.694665        -0.209611        -0.154994
 O        -3.039148         0.059056         1.190204
 C        -2.890899         1.044436        -1.111852
 C        -4.462381         1.319125        -1.249974
 O        -4.500439         0.328095        -2.400131
 C        -2.978428         0.517155        -2.513132
 H         1.745858        -0.109527         1.279738
 H         2.110010         0.407283        -0.424847
 H         1.031932         1.345670         0.641055
 H        -3.180557        -1.128409        -0.524091
 H        -2.657807         0.865081         1.504690
 H        -2.126301         1.780489        -0.947056
 H        -5.142106         1.049556        -0.402808
 H        -4.699067         2.328375        -1.697500
 H        -2.357217        -0.362750        -2.805644
 H        -2.869132         1.331210        -3.232353
