19
Iteration:  4075charge 0 multiplicity 1
 C         1.498785        -0.251721         0.161619
 C         0.103159        -0.185577         0.121879
 C        -1.071913         0.100966        -0.062086
 C        -2.528074        -0.136536        -0.174500
 O        -3.229313        -0.380183         1.073277
 C        -3.250859         1.057092        -0.825408
 C        -4.666711         0.822539        -1.229863
 O        -4.252119         0.734845        -2.604706
 C        -2.962647         1.261880        -2.368858
 H         1.871628        -0.982510         0.993298
 H         1.992944        -0.702282        -0.766760
 H         1.830299         0.781292         0.326263
 H        -2.676039        -1.080482        -0.986063
 H        -2.638635        -0.946074         1.602779
 H        -2.943810         1.891949        -0.317133
 H        -5.327506         0.011479        -0.887265
 H        -5.457400         1.595016        -1.076084
 H        -2.296621         0.592076        -2.872801
 H        -2.827971         2.294701        -2.514678
