19
Iteration:   523charge 0 multiplicity 1
 C         1.516482        -0.279110         0.689022
 C         0.239050         0.033831         0.257486
 C        -0.846492         0.186605        -0.240049
 C        -2.315460         0.098400        -0.141855
 O        -2.895990         0.247068         1.219293
 C        -3.155211         0.843124        -1.159824
 C        -4.766342         0.757052        -1.223540
 O        -4.723556         0.683426        -2.750389
 C        -3.323208         0.316566        -2.609287
 H         1.702557        -1.252517         0.274663
 H         2.237692         0.406307         0.197661
 H         1.652946        -0.415590         1.750642
 H        -2.636493        -0.947362        -0.415135
 H        -2.654476         1.202877         1.403577
 H        -2.845089         1.967873        -1.147200
 H        -5.185115        -0.156007        -0.787523
 H        -5.290864         1.695733        -0.921902
 H        -3.195172        -0.714878        -2.969180
 H        -2.772665         1.014684        -3.283630
