19
Iteration:  4880charge 0 multiplicity 1
 C         1.501672        -0.227358         0.608459
 C         0.105001        -0.048617         0.269689
 C        -0.997693        -0.177400        -0.297953
 C        -2.457603        -0.156672        -0.401376
 O        -3.032473        -0.658938         0.734069
 C        -3.116099         1.247932        -0.918133
 C        -4.609446         1.109665        -1.018344
 O        -4.576926         0.746736        -2.418955
 C        -3.181805         1.165903        -2.482038
 H         1.842724         0.735868         0.954275
 H         1.513897        -0.946467         1.402984
 H         2.092002        -0.448696        -0.336404
 H        -2.704810        -0.877346        -1.186091
 H        -2.343303        -0.608585         1.423728
 H        -2.501835         2.150688        -0.499141
 H        -5.027503         0.148564        -0.363533
 H        -4.990790         2.053415        -0.867926
 H        -2.486921         0.528561        -3.134069
 H        -3.292496         2.038006        -3.095078
