19
Iteration:  1127
 C         0.680579        -0.862620        -1.137641
 C        -0.420298        -0.377434        -0.379881
 C        -1.332661         0.067667         0.344912
 C        -2.755277         0.045407         0.694903
 O        -3.360475         1.198256         1.504134
 C        -3.416005         0.177763        -0.678588
 C        -2.965692        -0.208943        -2.097488
 O        -3.296713         1.097172        -2.755896
 C        -3.551850         1.589554        -1.377978
 H         1.550235        -0.245866        -1.038629
 H         0.944654        -1.781945        -0.563069
 H         0.175887        -1.377610        -1.980904
 H        -2.975278        -0.987201         1.051437
 H        -3.403267         0.860471         2.402066
 H        -4.432899        -0.234998        -0.608706
 H        -1.854507        -0.504879        -2.348527
 H        -3.684405        -0.891312        -2.663660
 H        -2.808447         2.322941        -0.989574
 H        -4.547363         2.148320        -1.164965
