19
Iteration:  2511
 C         1.320301        -0.007191        -0.355096
 C         0.044962        -0.091069         0.238630
 C        -1.146384        -0.104557         0.296409
 C        -2.576148        -0.236108         0.053922
 O        -3.356583        -0.012071         1.269903
 C        -3.156449         0.883634        -0.837388
 C        -4.525368         0.596105        -1.383285
 O        -4.205846         0.875850        -2.764685
 C        -2.747466         1.002436        -2.341584
 H         1.326198        -0.586484        -1.274150
 H         1.612594         0.989949        -0.376901
 H         2.200734        -0.283149         0.331315
 H        -2.874605        -1.191532        -0.301741
 H        -3.043744        -0.612999         1.935460
 H        -2.884391         1.825711        -0.385384
 H        -4.763375        -0.434341        -1.043187
 H        -5.380386         1.286570        -1.150220
 H        -2.300743        -0.073835        -2.683900
 H        -2.172477         1.906117        -2.713250
