19
Iteration:  2908charge 0 multiplicity 1
 C         1.302915         0.339262         0.731820
 C         0.141163        -0.145935         0.026998
 C        -0.963882        -0.662710        -0.172951
 C        -2.430015        -0.536450        -0.338611
 O        -2.940692        -0.182103         1.022987
 C        -2.986537         0.754489        -1.160292
 C        -4.463909         1.323226        -1.025599
 O        -4.653962         1.169916        -2.464004
 C        -3.345552         0.620962        -2.671037
 H         0.983233         1.241026         1.094512
 H         1.542397        -0.199742         1.681212
 H         2.286869         0.379332         0.092411
 H        -2.952883        -1.518020        -0.688650
 H        -2.160600        -0.219303         1.591861
 H        -2.295805         1.511487        -1.008310
 H        -4.977302         0.635700        -0.316188
 H        -4.440302         2.387689        -0.863797
 H        -3.383904        -0.401735        -3.115523
 H        -2.855791         1.216207        -3.631146
