19
Iteration:  2902
 C         1.324475         0.355526         0.712083
 C         0.139508        -0.207635         0.055175
 C        -0.963098        -0.667845        -0.206203
 C        -2.439738        -0.565418        -0.297876
 O        -2.955686        -0.159781         1.010381
 C        -2.984236         0.765923        -1.221658
 C        -4.459829         1.279087        -1.011759
 O        -4.643300         1.176569        -2.434036
 C        -3.340305         0.654476        -2.714283
 H         0.998386         1.442398         1.076009
 H         1.484233        -0.260700         1.613373
 H         2.198200         0.643825         0.195895
 H        -2.889305        -1.462838        -0.601300
 H        -2.277040        -0.261308         1.737198
 H        -2.291483         1.670832        -0.981755
 H        -5.087270         0.674534        -0.328557
 H        -4.381648         2.375499        -0.794187
 H        -3.437329        -0.418251        -2.986884
 H        -2.771316         1.106875        -3.477108
