19
Iteration:  1552
 C         1.350886         0.388152         0.126567
 C        -0.028693        -0.122848        -0.070442
 C        -1.179734        -0.514184         0.038384
 C        -2.685313        -0.285570         0.001230
 O        -3.264465        -0.205894         1.298852
 C        -2.902576         0.946000        -0.938408
 C        -4.413852         1.348891        -1.375898
 O        -4.350829         0.764633        -2.644340
 C        -2.927466         0.421827        -2.415031
 H         1.757742         0.652089        -0.922571
 H         1.572269         1.263261         0.643898
 H         1.989486        -0.386664         0.581071
 H        -3.122569        -1.318272        -0.326258
 H        -2.692441         0.208838         1.933629
 H        -2.185154         1.759667        -0.740527
 H        -5.268289         1.076878        -0.725830
 H        -4.394626         2.479517        -1.410570
 H        -2.771133        -0.691842        -2.374476
 H        -2.324011         0.967984        -3.053249
