19
Iteration:  4906
 C         1.559424        -0.216755         0.657998
 C         0.129028        -0.181978         0.157155
 C        -0.994061        -0.096450        -0.319491
 C        -2.458376        -0.188329        -0.530704
 O        -3.111507        -0.490569         0.771162
 C        -3.152508         1.122348        -0.924093
 C        -4.669914         0.998543        -0.973798
 O        -4.530542         0.688192        -2.400767
 C        -3.122300         1.295395        -2.428593
 H         1.983080         0.829126         0.753318
 H         1.484985        -0.732825         1.677938
 H         2.132377        -0.731486        -0.050728
 H        -2.661025        -0.971662        -1.227712
 H        -2.340329        -0.545942         1.362182
 H        -2.633619         1.889524        -0.462114
 H        -5.165378         0.234286        -0.372959
 H        -4.948528         2.051126        -0.939889
 H        -2.490150         0.868341        -3.157561
 H        -3.305370         2.293222        -2.709503
