19
Iteration:  1297
 C         1.143254        -0.396479        -0.242842
 C        -0.261042        -0.331922        -0.169322
 C        -1.481139        -0.294530        -0.180776
 C        -2.840032        -0.077070         0.230350
 O        -2.612042         0.793435         1.402786
 C        -3.772352         0.511471        -0.708236
 C        -4.170248        -0.123375        -2.052706
 O        -3.414810         0.941911        -2.772863
 C        -3.288414         1.674005        -1.548161
 H         1.682647         0.531295        -0.508472
 H         1.468355        -0.546321         0.800444
 H         1.404380        -1.294959        -0.808407
 H        -3.153437        -1.056257         0.620404
 H        -1.825089         0.445139         1.818784
 H        -4.575865         0.915039         0.017238
 H        -3.612200        -1.157873        -2.302534
 H        -5.308162        -0.295917        -2.274269
 H        -2.216699         1.934966        -1.493300
 H        -4.075895         2.399272        -1.420509
