19
Iteration:   434charge 0 multiplicity 1
 C         1.303815         0.153525        -0.057575
 C         0.016571        -0.277592         0.214804
 C        -1.189867        -0.297096         0.122863
 C        -2.641986        -0.088000         0.148281
 O        -3.023921         0.408507         1.346305
 C        -3.089023         0.900459        -0.979368
 C        -4.595272         0.860149        -1.378001
 O        -4.310149         0.571479        -2.761701
 C        -2.899427         0.480630        -2.551132
 H         1.828849        -0.263970        -0.987166
 H         1.333428         1.254775        -0.126835
 H         1.946988        -0.091347         0.810522
 H        -3.083980        -1.109728        -0.064817
 H        -2.294696         0.312815         2.011105
 H        -2.837822         1.996548        -0.671198
 H        -5.248027         0.081884        -0.956183
 H        -5.056431         1.866921        -1.282501
 H        -2.433610        -0.517239        -2.520864
 H        -2.382006         1.158734        -3.326035
