19
Iteration:   738charge 0 multiplicity 1
 C         1.323045         0.258896        -0.150782
 C        -0.071276        -0.020261         0.019524
 C        -1.266496        -0.303443         0.058136
 C        -2.703434        -0.270732         0.057972
 O        -3.295878         0.049741         1.370915
 C        -3.023070         0.864570        -0.871713
 C        -4.498374         1.093567        -1.322685
 O        -4.137873         0.578183        -2.690224
 C        -2.785251         0.518631        -2.400383
 H         1.996008        -0.022559         0.797067
 H         1.779089        -0.230919        -0.972103
 H         1.536769         1.357811        -0.246591
 H        -3.121391        -1.318656        -0.177525
 H        -2.450638         0.222411         1.854939
 H        -2.576792         1.759971        -0.402812
 H        -5.441133         0.711783        -0.883948
 H        -4.615078         2.205181        -1.443968
 H        -2.393633        -0.503297        -2.604500
 H        -2.196310         1.220597        -3.013019
