19
Iteration:  1843charge 0 multiplicity 1
 C         1.470237        -0.095820         0.114718
 C        -0.005007        -0.343199         0.175728
 C        -1.190296        -0.332257         0.004542
 C        -2.641213        -0.031976         0.111625
 O        -2.983025         0.659651         1.330133
 C        -3.128204         0.930559        -1.035799
 C        -4.653743         0.661333        -1.320150
 O        -4.323386         0.513298        -2.777578
 C        -2.956613         0.752627        -2.533184
 H         2.049359        -0.877322        -0.358858
 H         1.636663         0.729582        -0.711183
 H         1.937145         0.282189         1.055529
 H        -3.272776        -1.031036         0.180130
 H        -2.960295        -0.044809         1.985661
 H        -2.839653         1.912586        -0.553564
 H        -4.988035        -0.214172        -0.825205
 H        -5.306527         1.602670        -1.281981
 H        -2.321659        -0.016176        -2.976371
 H        -2.485564         1.556611        -3.090914
