19
Iteration:  3613charge 0 multiplicity 1
 C         1.432081        -0.188861         0.696024
 C         0.090334        -0.133678         0.249399
 C        -1.035311        -0.044369        -0.285483
 C        -2.529827        -0.161298        -0.406120
 O        -3.043266        -0.238595         0.931851
 C        -2.981580         1.097161        -1.118416
 C        -4.482613         1.209606        -1.051915
 O        -4.610475         0.560502        -2.364529
 C        -3.205801         0.810224        -2.683313
 H         1.816605         0.781196         1.182273
 H         1.701461        -1.075865         1.361021
 H         2.217662        -0.210561        -0.117983
 H        -2.895954        -1.168936        -0.891194
 H        -2.306319         0.171550         1.401993
 H        -2.375087         1.945587        -0.851294
 H        -4.998839         0.624674        -0.314285
 H        -4.998325         2.216427        -0.958627
 H        -2.709775        -0.067773        -2.958658
 H        -3.162036         1.710400        -3.266576
