19
Iteration:  4934charge 0 multiplicity 1
 C         1.454986        -0.182160         0.615936
 C         0.175103        -0.255100        -0.039210
 C        -1.001656        -0.138796        -0.171748
 C        -2.403589        -0.147837        -0.395574
 O        -3.126196        -0.479490         0.925563
 C        -3.100977         1.176876        -0.924949
 C        -4.596775         0.846936        -1.051023
 O        -4.527644         0.746167        -2.511902
 C        -3.185175         1.385262        -2.458857
 H         1.961140         0.767264         0.553756
 H         1.287255        -0.409408         1.652424
 H         2.123323        -1.013868         0.183317
 H        -2.577282        -0.992004        -1.191429
 H        -2.428215        -0.946881         1.459314
 H        -2.571991         2.067324        -0.399603
 H        -5.055447        -0.051315        -0.439751
 H        -5.121128         1.796377        -0.857160
 H        -2.556043         0.919423        -3.307442
 H        -3.421667         2.517808        -2.705819
