19
Iteration:   828
 C         1.278958        -0.239207        -0.490562
 C        -0.031081         0.238784        -0.164506
 C        -1.169927         0.067428         0.299351
 C        -2.620710        -0.084499         0.339335
 O        -3.411819         0.194803         1.513595
 C        -3.238094         0.684766        -0.802782
 C        -4.492770         0.267175        -1.607236
 O        -4.014611         0.992633        -2.737534
 C        -2.601025         0.876607        -2.221064
 H         1.920945        -0.156119         0.483283
 H         1.128181        -1.268042        -0.692581
 H         1.789084         0.280306        -1.319443
 H        -2.766553        -1.228895         0.177901
 H        -4.091552        -0.462205         1.514492
 H        -3.397340         1.693458        -0.302294
 H        -4.470658        -0.856186        -1.730552
 H        -5.496999         0.623265        -1.350202
 H        -2.020397         0.027074        -2.604734
 H        -1.983916         1.802709        -2.334923
