19
Iteration:  4222
 C         1.459267         0.181868         0.621756
 C         0.126817        -0.212896         0.235249
 C        -1.020386        -0.265405        -0.206290
 C        -2.447337        -0.449591        -0.438840
 O        -3.072593        -0.515442         0.844540
 C        -2.982810         0.803599        -1.051930
 C        -4.470862         1.254065        -0.989245
 O        -4.683200         1.177770        -2.416276
 C        -3.251921         0.864127        -2.556584
 H         1.425463         0.997257         1.355887
 H         2.001068        -0.536879         1.257340
 H         2.016601         0.350517        -0.387845
 H        -2.731382        -1.401000        -1.144924
 H        -2.565533        -1.236366         1.309672
 H        -2.307840         1.717122        -0.760787
 H        -5.164439         0.679347        -0.513205
 H        -4.330743         2.301476        -0.624729
 H        -3.218283        -0.079119        -3.153957
 H        -2.710868         1.652262        -3.092822
