19
Iteration:  4917
 C         1.487514        -0.230773         0.628818
 C         0.164974        -0.211238         0.061761
 C        -0.999498        -0.059751        -0.237651
 C        -2.499809        -0.225431        -0.447594
 O        -3.083849        -0.460758         0.771146
 C        -3.062619         1.091203        -0.929882
 C        -4.593343         1.013515        -1.021867
 O        -4.503565         0.681260        -2.442887
 C        -3.235262         1.352527        -2.449668
 H         1.850593         0.844076         0.706677
 H         1.594442        -0.566599         1.728322
 H         2.257346        -0.810874         0.231783
 H        -2.718456        -0.991872        -1.145514
 H        -2.438738        -0.652314         1.494123
 H        -2.802385         1.805434        -0.223808
 H        -5.125274         0.200685        -0.471854
 H        -5.268907         1.792164        -0.661146
 H        -2.490630         0.856322        -3.011761
 H        -3.319646         2.375970        -2.693227
