19
Iteration:  3692charge 0 multiplicity 1
 C         1.463275        -0.026479         0.306041
 C         0.029727        -0.249358         0.024472
 C        -1.141311        -0.192314        -0.124987
 C        -2.594951        -0.226483        -0.126405
 O        -3.183794        -0.026711         1.147829
 C        -3.042196         0.930403        -0.907740
 C        -4.565204         0.920722        -1.209450
 O        -4.416771         0.792458        -2.658225
 C        -2.956104         0.893912        -2.416838
 H         1.867534         0.968292         0.103042
 H         1.658073        -0.034244         1.387427
 H         2.248397        -0.583174        -0.362784
 H        -2.955153        -1.230123        -0.573300
 H        -2.836900        -0.751477         1.683124
 H        -2.502261         1.840199        -0.558966
 H        -5.042154         0.161783        -0.682812
 H        -4.967313         1.964118        -1.128139
 H        -2.396602         0.160407        -2.939279
 H        -2.507649         1.801091        -2.834844
