19
Iteration:   257charge 0 multiplicity 1
 C         1.265141        -0.113348        -0.435104
 C        -0.156666        -0.149424        -0.246846
 C        -1.322673        -0.142273         0.171143
 C        -2.727957         0.075023         0.439186
 O        -3.197901         0.543565         1.609487
 C        -3.341510         0.926886        -0.751714
 C        -4.494893         0.311351        -1.588341
 O        -3.873913         0.533659        -2.895510
 C        -2.620579         0.858218        -2.222593
 H         1.645671         0.728238        -1.218128
 H         1.821457         0.048058         0.450817
 H         1.628451        -1.077411        -0.858944
 H        -3.130833        -0.921905         0.245582
 H        -2.912746         0.056525         2.391186
 H        -3.566863         1.996569        -0.463935
 H        -4.869470        -0.688017        -1.432884
 H        -5.388129         0.914397        -1.375280
 H        -1.917271         0.048715        -2.204511
 H        -2.078574         1.631324        -2.864715
