19
Iteration:   813
 C         1.349159        -0.177997        -0.462910
 C        -0.084567         0.119762        -0.136826
 C        -1.253120         0.203773         0.330325
 C        -2.659293        -0.164782         0.297377
 O        -3.422835         0.137130         1.477956
 C        -3.153827         0.789903        -0.838744
 C        -4.512606         0.354188        -1.499087
 O        -3.944072         0.974422        -2.723396
 C        -2.646365         0.762167        -2.250505
 H         2.128995        -0.154040         0.272703
 H         1.485665        -1.124882        -0.965608
 H         1.681676         0.585565        -1.186519
 H        -2.742669        -1.188158        -0.028217
 H        -4.011923        -0.607414         1.670079
 H        -3.247047         1.826852        -0.624164
 H        -4.777050        -0.695232        -1.737930
 H        -5.440486         0.845826        -1.051659
 H        -2.380271        -0.279429        -2.588438
 H        -2.006489         1.545635        -2.615833
