19
Iteration:  3485charge 0 multiplicity 1
 C         1.638588        -0.155707         0.666920
 C         0.197385        -0.081638         0.162000
 C        -0.996019        -0.132660        -0.065880
 C        -2.436835        -0.221949        -0.333946
 O        -3.183946        -0.051299         0.931394
 C        -3.018749         0.912724        -1.170818
 C        -4.561654         1.126969        -1.058639
 O        -4.712734         0.797577        -2.490325
 C        -3.248722         0.686619        -2.635958
 H         1.557061        -0.210867         1.690416
 H         2.218963        -1.006758         0.287957
 H         2.251710         0.725013         0.301526
 H        -2.641022        -1.190748        -0.613448
 H        -2.614483        -0.390071         1.660447
 H        -2.473126         1.869773        -0.803955
 H        -5.068211         0.411377        -0.371728
 H        -4.956287         2.138271        -1.043688
 H        -2.780129        -0.187610        -3.172270
 H        -2.765294         1.447140        -3.292853
