19
Iteration:  1680charge 0 multiplicity 1
 C         1.615950        -0.220326         0.887699
 C         0.267416        -0.079842         0.276991
 C        -0.897712        -0.022558        -0.145273
 C        -2.363089        -0.001094        -0.347268
 O        -2.992846         0.036120         0.932386
 C        -3.038314         1.054041        -1.288425
 C        -4.611156         1.100959        -1.122878
 O        -4.865526         0.580044        -2.517177
 C        -3.415165         0.459201        -2.676931
 H         2.242343        -0.667099         0.194114
 H         2.048215         0.801665         1.150936
 H         1.715243        -0.928876         1.715877
 H        -2.587371        -1.040292        -0.649433
 H        -2.608091         0.660997         1.603194
 H        -2.507561         2.019933        -1.439711
 H        -4.984765         0.346379        -0.413308
 H        -4.917897         2.187654        -0.860528
 H        -3.077768        -0.514203        -2.878787
 H        -3.009822         0.945494        -3.610592
