19
Iteration:  4557
 C         1.410760         0.009628        -0.437812
 C        -0.010304        -0.029896         0.014197
 C        -1.244971        -0.085691         0.129137
 C        -2.688071        -0.258860        -0.010156
 O        -3.388478        -0.733977         1.191365
 C        -3.308101         0.955230        -0.607477
 C        -4.578622         0.762673        -1.511599
 O        -3.799582         0.831005        -2.672947
 C        -2.740455         1.477650        -1.922717
 H         1.669706        -1.004720        -0.924776
 H         1.566561         0.822072        -1.248574
 H         2.014329         0.234241         0.395677
 H        -2.807237        -1.212962        -0.754382
 H        -3.633774         0.165482         1.555068
 H        -3.559879         1.632284         0.384629
 H        -5.097380        -0.365754        -1.385631
 H        -5.342219         1.575352        -1.389914
 H        -1.772250         1.259574        -2.323662
 H        -2.813354         2.507619        -1.965010
