19
Iteration:  1737charge 0 multiplicity 1
 C         1.367453        -0.583998         0.690898
 C         0.150721         0.168222         0.215073
 C        -0.918333         0.519024        -0.130520
 C        -2.267648         0.084659        -0.200621
 O        -2.867476         0.069857         1.139038
 C        -3.159605         0.904528        -1.252444
 C        -4.662986         0.844862        -1.138284
 O        -4.678661         0.696082        -2.627143
 C        -3.300302         0.364638        -2.729835
 H         1.711264        -1.305544        -0.030246
 H         2.142535         0.206146         0.784450
 H         1.244576        -1.010662         1.696922
 H        -2.206192        -1.072209        -0.515473
 H        -2.271891         0.422280         1.787803
 H        -2.724077         1.917275        -1.244463
 H        -5.170954        -0.018791        -0.616954
 H        -5.118423         1.804274        -0.757052
 H        -3.165654        -0.677998        -2.771528
 H        -2.930582         1.031769        -3.511552
