19
Iteration:  3589
 C         1.454272        -0.290425         0.757287
 C         0.228936         0.039146         0.122902
 C        -0.913834        -0.147581        -0.168302
 C        -2.405912        -0.021622        -0.351375
 O        -3.073048        -0.337420         0.865547
 C        -2.973420         1.187601        -1.162238
 C        -4.555041         1.248345        -1.097384
 O        -4.737082         0.561566        -2.374136
 C        -3.270405         0.716969        -2.646969
 H         1.807451         0.553029         1.538435
 H         1.443667        -1.290835         1.237729
 H         2.339885        -0.265764         0.226629
 H        -2.772517        -0.927879        -0.902820
 H        -2.630771         0.216562         1.572176
 H        -2.566339         2.152096        -1.037353
 H        -5.240441         0.726714        -0.382326
 H        -5.001128         2.262778        -1.051913
 H        -2.841178        -0.226805        -2.734319
 H        -3.071311         1.566870        -3.315073
