19
Iteration:  3957
 C         1.385183        -0.197322        -0.257441
 C        -0.008087        -0.180974        -0.104875
 C        -1.191731        -0.264800        -0.015947
 C        -2.712797        -0.164114         0.150614
 O        -3.212748        -0.022807         1.495700
 C        -3.401141         0.993025        -0.692656
 C        -4.640561         0.481668        -1.632198
 O        -3.867225         0.823902        -2.889109
 C        -2.802191         1.391802        -2.007918
 H         1.829224        -1.116140        -0.699016
 H         1.781368         0.530145        -1.001584
 H         1.920663         0.028506         0.585067
 H        -3.122292        -1.238878        -0.107439
 H        -2.625555        -0.225375         2.261280
 H        -3.832581         1.899236        -0.076920
 H        -4.874276        -0.540738        -1.412958
 H        -5.658556         0.900581        -1.649251
 H        -1.796759         0.846453        -2.256907
 H        -2.591435         2.546141        -2.148493
