19
Iteration:  4919
 C         1.478162        -0.224692         0.634320
 C         0.162979        -0.217705         0.042544
 C        -1.001103        -0.061029        -0.223171
 C        -2.485372        -0.220595        -0.436598
 O        -3.084987        -0.460968         0.782139
 C        -3.042865         1.092191        -0.920669
 C        -4.587783         1.000850        -1.025988
 O        -4.503078         0.681544        -2.452708
 C        -3.261019         1.357642        -2.455894
 H         1.836646         0.820954         0.664471
 H         1.539589        -0.541167         1.700750
 H         2.289898        -0.850227         0.204573
 H        -2.737796        -1.073636        -1.136308
 H        -2.451703        -0.677986         1.484400
 H        -2.832004         1.850676        -0.195889
 H        -5.034217         0.243570        -0.546140
 H        -5.334634         1.790853        -0.670315
 H        -2.493796         0.866929        -2.989387
 H        -3.245715         2.462230        -2.707800
