19
Iteration:  4711
 C         1.447017         0.207737         0.227928
 C         0.058793        -0.110707        -0.063955
 C        -1.129337        -0.291672        -0.145440
 C        -2.585016        -0.459919        -0.123707
 O        -3.110648        -0.448477         1.213400
 C        -3.196479         0.732818        -0.831599
 C        -4.624209         0.767251        -1.315338
 O        -4.265747         1.489469        -2.584627
 C        -2.928280         0.997338        -2.338165
 H         1.689697        -0.224341         1.239617
 H         2.098472        -0.282244        -0.559113
 H         1.669489         1.253391         0.246123
 H        -2.898264        -1.281512        -0.628456
 H        -3.438590        -1.343331         1.308591
 H        -2.707101         1.606282        -0.286353
 H        -5.236526        -0.272423        -1.570764
 H        -5.387901         1.340635        -0.787132
 H        -2.942976         0.000372        -2.849188
 H        -2.042329         1.604256        -2.615886
