19
Iteration:  3271charge 0 multiplicity 1
 C         1.124823        -0.190228        -0.633098
 C        -0.132524         0.125931        -0.026915
 C        -1.253163        -0.088755         0.327422
 C        -2.670694        -0.128515         0.337148
 O        -3.437490        -0.186299         1.580771
 C        -3.210411         0.968967        -0.776775
 C        -4.502016         0.506020        -1.586446
 O        -3.824223         0.918019        -2.860093
 C        -2.522343         1.004806        -2.171184
 H         1.191887        -1.229116        -1.095098
 H         1.279817         0.452237        -1.519737
 H         2.079380         0.002565        -0.181930
 H        -2.958405        -1.230603        -0.170666
 H        -3.068613         0.441149         2.278071
 H        -3.152960         1.924802        -0.223096
 H        -4.772667        -0.552056        -1.589518
 H        -5.298386         1.248216        -1.500438
 H        -1.811542         0.042921        -2.311448
 H        -2.016646         1.975402        -2.367601
