19
Iteration:  1137charge 0 multiplicity 1
 C         0.617921        -0.919259        -1.145713
 C        -0.448647        -0.328072        -0.319339
 C        -1.324038         0.058942         0.371902
 C        -2.783067         0.114682         0.696669
 O        -3.357810         1.155335         1.556278
 C        -3.416493         0.209406        -0.761202
 C        -2.930509        -0.198390        -2.184254
 O        -3.291181         1.070457        -2.749881
 C        -3.548016         1.577692        -1.335120
 H         1.507709        -0.286117        -1.391274
 H         1.037237        -1.694423        -0.624218
 H         0.452982        -1.208894        -2.201547
 H        -3.145234        -0.810960         1.232487
 H        -3.006897         0.935782         2.410454
 H        -4.460382        -0.177847        -0.681581
 H        -1.846830        -0.409984        -2.288824
 H        -3.480699        -1.129667        -2.432584
 H        -2.754396         2.256147        -0.994669
 H        -4.615264         1.942970        -1.316227
