19
Iteration:  2500
 C         1.384733         0.031350        -0.258063
 C        -0.007444        -0.044446         0.191863
 C        -1.210099        -0.050057         0.199140
 C        -2.620015        -0.269157         0.053287
 O        -3.297480        -0.035564         1.303091
 C        -3.110222         0.847033        -0.871886
 C        -4.587574         0.683574        -1.360406
 O        -4.158577         0.923529        -2.740530
 C        -2.780417         0.853192        -2.347728
 H         1.417632        -0.451691        -1.239418
 H         1.724301         0.978641        -0.517039
 H         2.008714        -0.648014         0.398062
 H        -2.696493        -1.207608        -0.394737
 H        -2.975798        -0.656505         1.965387
 H        -3.058970         1.750349        -0.280812
 H        -4.946045        -0.381376        -1.328516
 H        -5.356064         1.344279        -0.887487
 H        -2.209420        -0.108856        -2.805205
 H        -2.154834         1.724691        -2.703106
