19
Iteration:   465charge 0 multiplicity 1
 C         1.494717         0.074299         0.287172
 C         0.081123        -0.219194         0.103906
 C        -1.127811        -0.355214        -0.097866
 C        -2.620774        -0.109513         0.047355
 O        -3.049166         0.509411         1.254504
 C        -3.092935         0.902275        -1.043925
 C        -4.599166         0.734210        -1.230063
 O        -4.445758         0.617502        -2.708473
 C        -3.022709         0.530146        -2.596028
 H         2.171408        -0.538435        -0.383580
 H         1.729832         1.050222         0.114739
 H         1.766767        -0.060468         1.328766
 H        -3.192206        -1.057481        -0.060405
 H        -2.299553         1.025277         1.544513
 H        -2.837279         1.974807        -0.631162
 H        -5.052902        -0.177448        -0.794885
 H        -5.229607         1.559395        -0.934814
 H        -2.631016        -0.476289        -2.678904
 H        -2.573621         1.143697        -3.418260
