19
Iteration:  2100charge 0 multiplicity 1
 C         1.358331        -0.147168         0.162976
 C        -0.051608        -0.073950        -0.158224
 C        -1.294991        -0.093729        -0.271440
 C        -2.673085        -0.045176         0.217180
 O        -2.814062         0.471368         1.571764
 C        -3.347474         0.819585        -0.893957
 C        -4.714921         0.691122        -1.534951
 O        -4.198812         0.682404        -2.859568
 C        -2.790503         0.549045        -2.288304
 H         1.543513        -0.200777         1.322749
 H         1.869683        -1.058307        -0.249297
 H         1.744648         0.775543        -0.268299
 H        -3.187583        -1.009139         0.182429
 H        -1.950239         0.141432         1.941255
 H        -3.170537         1.848986        -0.692329
 H        -5.189758        -0.367121        -1.415145
 H        -5.372331         1.562613        -1.248484
 H        -2.558432        -0.483357        -2.391092
 H        -2.061133         1.106391        -2.906034
