19
Iteration:  4025charge 0 multiplicity 1
 C         1.481889        -0.384406        -0.019613
 C         0.087704        -0.009524        -0.043591
 C        -1.166402         0.036284         0.001642
 C        -2.629269        -0.077720        -0.012874
 O        -3.203839        -0.231165         1.288721
 C        -3.370168         1.026990        -0.790705
 C        -4.651799         0.540035        -1.407123
 O        -4.098651         0.754063        -2.744455
 C        -2.851516         1.389619        -2.201495
 H         1.615698        -1.394483         0.333876
 H         1.866325        -0.345004        -1.056858
 H         2.102616         0.259056         0.615318
 H        -2.785949        -1.079614        -0.630732
 H        -2.915341        -1.069568         1.650300
 H        -3.293244         1.968589        -0.027118
 H        -5.174718        -0.387778        -1.118770
 H        -5.530124         1.190007        -1.268967
 H        -1.893288         0.869806        -2.586622
 H        -2.668476         2.529679        -2.460008
