19
Iteration:  2993charge 0 multiplicity 1
 C         1.719550        -0.079576         0.538972
 C         0.279847        -0.086116         0.174019
 C        -0.939714        -0.085889         0.075188
 C        -2.407233        -0.237248        -0.200589
 O        -3.250426        -0.362839         0.955659
 C        -3.063842         0.968381        -1.150286
 C        -4.631111         1.140088        -1.148299
 O        -4.705356         0.897193        -2.543592
 C        -3.282963         0.735891        -2.617243
 H         2.456923         0.814935         0.256038
 H         1.641601        -0.362814         1.583022
 H         2.270175        -0.847310        -0.025683
 H        -2.503343        -1.191216        -0.794697
 H        -2.749524         0.164056         1.604700
 H        -2.548823         1.943113        -1.074757
 H        -5.249094         0.440502        -0.529956
 H        -4.985063         2.229563        -0.989507
 H        -3.054857        -0.331413        -3.021609
 H        -2.808720         1.474526        -3.192723
