19
Iteration:   783charge 0 multiplicity 1
 C         1.361742         0.032977        -0.440797
 C        -0.015612        -0.088499         0.047592
 C        -1.196302         0.010133         0.377619
 C        -2.623567        -0.090888         0.243031
 O        -3.363205         0.037718         1.451836
 C        -3.133556         0.872639        -0.850089
 C        -4.615088         0.706695        -1.487531
 O        -4.027219         0.847490        -2.836508
 C        -2.731253         0.596899        -2.287993
 H         2.258720         0.148484         0.372838
 H         1.520995        -0.709791        -1.173953
 H         1.382584         1.051251        -0.894576
 H        -2.822993        -1.157527        -0.248670
 H        -3.548396        -0.792100         1.916247
 H        -2.966342         1.986316        -0.689992
 H        -5.114746        -0.291122        -1.409444
 H        -5.360422         1.514668        -1.236391
 H        -2.404635        -0.465759        -2.440864
 H        -1.964296         1.240662        -2.773511
