19
Iteration:  3856
 C         1.251814        -0.016533        -0.465021
 C        -0.166445        -0.256424        -0.063834
 C        -1.314052        -0.200877         0.187401
 C        -2.749965        -0.221848         0.211151
 O        -3.220797         0.111091         1.506264
 C        -3.311469         0.757631        -0.793453
 C        -4.575139         0.415151        -1.619919
 O        -3.834075         1.062646        -2.798686
 C        -2.563902         1.145127        -2.046299
 H         1.430538        -0.269276        -1.539427
 H         1.352483         1.056392        -0.268389
 H         1.929028        -0.622772        -0.096473
 H        -2.992458        -1.338204        -0.060583
 H        -2.987872        -0.501392         2.203990
 H        -3.422187         1.741237        -0.344538
 H        -4.716850        -0.613834        -2.012996
 H        -5.494463         0.907409        -1.188860
 H        -1.730365         0.399094        -2.279144
 H        -2.047349         2.164212        -2.170632
