19
Iteration:  4422charge 0 multiplicity 1
 C         1.517272         0.029076         0.158527
 C         0.159357        -0.132293        -0.018103
 C        -1.050252        -0.341933        -0.136256
 C        -2.588553        -0.282954        -0.129161
 O        -3.168242        -0.477445         1.213329
 C        -3.230929         0.980123        -0.784402
 C        -4.737074         0.734782        -1.338257
 O        -4.281676         1.018810        -2.715924
 C        -2.933066         1.415940        -2.225703
 H         2.013458         0.129596        -0.783534
 H         1.798534         0.749928         0.900832
 H         1.993707        -0.918087         0.646618
 H        -2.924703        -1.100838        -0.727908
 H        -3.180590        -1.446965         1.275205
 H        -3.267801         1.803121         0.016485
 H        -5.136563        -0.418925        -1.215375
 H        -5.607679         1.432029        -0.952062
 H        -1.994597         0.906280        -2.641140
 H        -2.846040         2.523927        -2.329666
