19
Iteration:  3484charge 0 multiplicity 1
 C         1.642738        -0.153183         0.669681
 C         0.194069        -0.084589         0.149893
 C        -0.998540        -0.125702        -0.067991
 C        -2.445620        -0.232003        -0.327454
 O        -3.181788        -0.047686         0.936113
 C        -3.023320         0.907343        -1.168372
 C        -4.562030         1.131289        -1.055639
 O        -4.707534         0.799497        -2.493348
 C        -3.241922         0.685076        -2.632797
 H         1.540021        -0.225640         1.669903
 H         2.207965        -1.030834         0.293709
 H         2.235053         0.779135         0.299513
 H        -2.628388        -1.180216        -0.613787
 H        -2.620057        -0.417418         1.672204
 H        -2.486252         1.854028        -0.808976
 H        -5.026702         0.405016        -0.399013
 H        -4.960076         2.140395        -1.056489
 H        -2.789178        -0.183270        -3.208794
 H        -2.757295         1.449474        -3.276179
