19
Iteration:  4372charge 0 multiplicity 1
 C         1.533875        -0.051464         0.369062
 C         0.121462        -0.079637         0.079106
 C        -1.039185        -0.089468        -0.244718
 C        -2.522124        -0.268530        -0.237496
 O        -3.159272        -0.533336         1.029882
 C        -3.210051         0.844151        -0.850107
 C        -4.652153         0.758199        -1.202341
 O        -4.436639         1.281133        -2.542587
 C        -3.023192         1.075095        -2.398341
 H         2.095109         0.587916        -0.393470
 H         1.690874         0.319909         1.419292
 H         2.043143        -0.942677         0.449150
 H        -2.664263        -1.233415        -0.989421
 H        -2.482920        -0.712346         1.736884
 H        -3.154216         1.715581        -0.237461
 H        -5.090814        -0.169670        -1.319754
 H        -5.301625         1.345644        -0.597969
 H        -2.564742         0.159942        -2.883459
 H        -2.261903         1.867167        -2.697081
