19
Iteration:   313
 C         1.063291        -0.036913        -0.754504
 C        -0.007958        -0.094816         0.141462
 C        -1.158493         0.011848         0.498138
 C        -2.648274        -0.062013         0.310050
 O        -3.503704         0.387112         1.464563
 C        -3.143296         0.797106        -0.851491
 C        -4.529723         0.688894        -1.498660
 O        -3.896717         0.492975        -2.797063
 C        -2.507748         0.648336        -2.257061
 H         0.737107         0.392654        -1.829215
 H         1.781843         0.721205        -0.456770
 H         1.436466        -1.034461        -1.039338
 H        -2.867413        -1.116335         0.150663
 H        -3.145010        -0.080036         2.274867
 H        -2.952665         1.890229        -0.553773
 H        -5.225629        -0.091307        -1.136492
 H        -4.930590         1.707548        -1.547906
 H        -1.919283        -0.278940        -2.269550
 H        -2.031095         1.538672        -2.833327
