19
Iteration:   449
 C         1.466986         0.157110         0.121097
 C         0.004384        -0.308067         0.192195
 C        -1.214106        -0.356098        -0.006969
 C        -2.617172        -0.071728        -0.038346
 O        -3.059779         0.485327         1.374843
 C        -3.088645         0.887638        -1.074850
 C        -4.611456         0.801065        -1.292102
 O        -4.393698         0.588367        -2.731260
 C        -2.904941         0.502113        -2.478865
 H         1.888439        -0.360889        -0.701881
 H         1.351261         1.297223        -0.195298
 H         2.138351        -0.079603         0.971637
 H        -3.247330        -0.951689        -0.123425
 H        -2.224529         0.627976         1.809299
 H        -2.602811         1.774167        -0.967449
 H        -4.958270        -0.117298        -0.790896
 H        -5.328691         1.646189        -1.091634
 H        -2.592903        -0.496026        -2.880346
 H        -2.307354         1.292324        -2.915861
