19
Iteration:  2912charge 0 multiplicity 1
 C         1.303139         0.315325         0.738367
 C         0.130140        -0.117170         0.011317
 C        -0.967958        -0.634885        -0.161883
 C        -2.448315        -0.496385        -0.364951
 O        -2.929145        -0.208967         1.026231
 C        -2.973368         0.728579        -1.125521
 C        -4.427868         1.339263        -1.044972
 O        -4.677704         1.160281        -2.488338
 C        -3.350463         0.586502        -2.656126
 H         1.011797         1.379285         1.152559
 H         1.587808        -0.244626         1.683195
 H         2.177040         0.191138         0.107629
 H        -2.910201        -1.366003        -0.695534
 H        -2.048516        -0.200848         1.502315
 H        -2.118763         1.498368        -0.967212
 H        -5.069998         0.707572        -0.368542
 H        -4.586656         2.423003        -0.723613
 H        -3.361141        -0.412882        -3.114954
 H        -2.874433         1.298757        -3.475037
