19
Iteration:  4230charge 0 multiplicity 1
 C         1.486102         0.178007         0.625351
 C         0.123101        -0.218173         0.233672
 C        -1.030064        -0.253540        -0.184960
 C        -2.515333        -0.425541        -0.432296
 O        -3.079732        -0.542737         0.848603
 C        -2.968225         0.799680        -1.103070
 C        -4.447157         1.226858        -0.968040
 O        -4.651125         1.210665        -2.391083
 C        -3.263500         0.847438        -2.625867
 H         1.510238         1.240138         1.135941
 H         2.037865        -0.661210         1.206184
 H         2.239531         0.359261        -0.130270
 H        -2.626816        -1.250977        -1.011744
 H        -2.571872        -1.150538         1.445922
 H        -2.537093         1.616892        -0.659152
 H        -5.112285         0.541988        -0.241400
 H        -4.661636         2.336699        -0.608997
 H        -3.239891         0.033308        -3.335015
 H        -2.688070         1.540864        -3.195138
