19
Iteration:  4097
 C         1.558002        -0.133903         0.255862
 C         0.072007        -0.215528         0.199391
 C        -1.109497        -0.101222        -0.025804
 C        -2.524180        -0.186049        -0.248084
 O        -3.163019        -0.422464         1.019107
 C        -3.139229         1.116768        -0.879099
 C        -4.602877         0.985640        -1.158808
 O        -4.433746         0.710378        -2.654906
 C        -3.006525         1.225354        -2.403516
 H         1.972101        -0.644650         1.227920
 H         1.986643        -0.800613        -0.586939
 H         1.839366         0.908616         0.160177
 H        -2.820864        -0.993964        -1.136946
 H        -2.434405        -0.927703         1.440466
 H        -2.879158         1.880694        -0.242794
 H        -5.260610         0.215838        -0.693193
 H        -5.295586         1.808365        -0.901606
 H        -2.224938         0.575945        -2.791797
 H        -3.025881         2.225018        -2.713090
