19
Iteration:  3634
 C         1.423175        -0.066839         0.596155
 C         0.029093        -0.268186         0.263006
 C        -1.034764        -0.216448        -0.250506
 C        -2.479447        -0.184146        -0.346788
 O        -3.065156        -0.134444         1.000264
 C        -2.989182         1.022886        -1.091299
 C        -4.505958         1.133226        -1.098969
 O        -4.577857         0.572960        -2.443747
 C        -3.163459         0.950340        -2.638052
 H         1.619647         1.063709         0.837000
 H         1.820981        -0.792313         1.345877
 H         2.062966        -0.342283        -0.226156
 H        -2.794106        -1.166336        -0.764580
 H        -2.282818        -0.018934         1.601260
 H        -2.404426         1.869068        -0.849759
 H        -5.029343         0.735861        -0.252797
 H        -4.859965         2.194556        -1.078602
 H        -2.709189         0.149993        -3.179427
 H        -3.211379         1.979530        -3.072314
