19
Iteration:  2750
 C         1.584681        -0.203439         0.100589
 C         0.141728         0.115670         0.248562
 C        -1.047997        -0.048625         0.108632
 C        -2.484261        -0.172898        -0.055814
 O        -3.211587        -0.446388         1.145373
 C        -3.209555         1.036566        -0.905112
 C        -4.717006         0.843023        -1.306345
 O        -4.383877         1.026618        -2.701972
 C        -2.991094         0.822465        -2.471436
 H         2.198531        -0.519954         1.025043
 H         1.696558        -0.913086        -0.702753
 H         2.044058         0.667662        -0.270248
 H        -2.744714        -0.969983        -0.783792
 H        -2.861652         0.124675         1.839190
 H        -2.997237         2.111485        -0.558111
 H        -5.121129        -0.135848        -0.965654
 H        -5.490881         1.625572        -0.968749
 H        -2.920862        -0.284940        -2.707533
 H        -2.309786         1.456487        -3.153719
