19
Iteration:  2556
 C         1.428826        -0.136968        -0.405341
 C        -0.025859        -0.202601        -0.065485
 C        -1.159933        -0.022795         0.336218
 C        -2.631205        -0.133040         0.169453
 O        -3.503150         0.029326         1.259668
 C        -3.141686         1.006552        -0.739313
 C        -4.519266         0.483421        -1.404004
 O        -4.020938         0.643845        -2.784891
 C        -2.779669         1.223712        -2.215140
 H         1.767408        -0.873737        -1.104436
 H         1.563496         0.818026        -0.862229
 H         2.215371         0.166844         0.399677
 H        -2.656462        -1.130810        -0.356859
 H        -3.344335        -0.610108         1.965399
 H        -3.383129         1.782719        -0.045961
 H        -4.710229        -0.603373        -1.220095
 H        -5.362557         1.113634        -1.025548
 H        -1.656823         0.816724        -2.438270
 H        -2.818204         2.285989        -2.547393
