19
Iteration:  1816charge 0 multiplicity 1
 C         1.563941        -0.220939         0.286827
 C         0.128230        -0.367469         0.228443
 C        -1.055596        -0.036260         0.127463
 C        -2.471484        -0.013569         0.012935
 O        -3.018569         0.599382         1.200480
 C        -3.174378         0.914573        -1.115234
 C        -4.710069         0.606603        -1.310266
 O        -4.530644         0.598809        -2.759674
 C        -3.089182         0.744399        -2.608626
 H         1.970797        -1.158827        -0.254721
 H         2.040989         0.520528        -0.249325
 H         1.871144        -0.197950         1.333707
 H        -2.833175        -1.169720        -0.031227
 H        -2.690028         0.087376         1.936081
 H        -2.939786         1.891743        -0.720775
 H        -5.043335        -0.356262        -0.766154
 H        -5.394213         1.387767        -1.086193
 H        -2.529337        -0.121013        -3.029557
 H        -2.681072         1.590142        -3.174743
