19
Iteration:  1704
 C         1.548140        -0.454854         0.847418
 C         0.268584         0.134259         0.290237
 C        -0.853719         0.216187        -0.132368
 C        -2.306072         0.044029        -0.316718
 O        -2.872343        -0.011005         1.012487
 C        -3.150715         1.034333        -1.272354
 C        -4.743642         1.063423        -1.155869
 O        -4.804011         0.624265        -2.612523
 C        -3.407748         0.385148        -2.653891
 H         2.050909        -1.090780         0.148880
 H         2.217081         0.411113         1.115082
 H         1.470323        -1.113021         1.727656
 H        -2.353751        -0.970715        -0.673209
 H        -2.342608         0.519363         1.656871
 H        -2.882942         2.081514        -1.373142
 H        -5.093663         0.280359        -0.460643
 H        -5.203052         2.075908        -1.034069
 H        -3.065630        -0.623714        -2.711794
 H        -2.953189         0.713082        -3.610473
