19
Iteration:  4569charge 0 multiplicity 1
 C         1.413749         0.037740        -0.424969
 C         0.027402        -0.035193        -0.013058
 C        -1.187333        -0.182232         0.170224
 C        -2.705157        -0.301679        -0.016859
 O        -3.424735        -0.726178         1.227058
 C        -3.374142         1.015259        -0.629179
 C        -4.565921         0.689667        -1.454972
 O        -3.827490         0.890151        -2.723132
 C        -2.705382         1.524875        -1.964521
 H         1.845796        -0.965641        -0.775271
 H         1.487701         0.796379        -1.289427
 H         2.135134         0.332362         0.303608
 H        -2.944435        -1.143242        -0.822683
 H        -3.586402        -0.023284         1.864103
 H        -3.514305         1.959649         0.132414
 H        -5.114199        -0.456437        -1.288476
 H        -5.391078         1.415242        -1.449283
 H        -1.750085         1.031538        -2.158909
 H        -2.675555         2.584666        -2.098637
