19
Iteration:  3201
 C         1.404227        -0.078608        -0.446988
 C        -0.065420        -0.273448        -0.204388
 C        -1.257308        -0.213273         0.133598
 C        -2.746917        -0.155375         0.292140
 O        -3.355832         0.015044         1.628625
 C        -3.289423         0.967468        -0.654730
 C        -4.654260         0.659763        -1.699783
 O        -3.760756         0.590560        -2.903132
 C        -2.731015         1.282008        -2.043685
 H         1.747336        -0.606774        -1.442615
 H         1.491749         1.006703        -0.609311
 H         2.155861        -0.279304         0.352401
 H        -3.317570        -1.202599        -0.054404
 H        -2.545424         0.038453         2.232635
 H        -3.381604         1.893337        -0.052540
 H        -5.118841        -0.317547        -1.566995
 H        -5.332890         1.509575        -1.791008
 H        -1.729408         0.750788        -2.375706
 H        -2.730108         2.400233        -2.330376
