19
Iteration:  1322charge 0 multiplicity 1
 C         1.339590        -0.316853        -0.117385
 C        -0.121023        -0.417201        -0.260510
 C        -1.419203        -0.426805        -0.253988
 C        -2.812072        -0.107159         0.289865
 O        -2.731670         0.672370         1.488860
 C        -3.790423         0.728990        -0.676705
 C        -4.240750        -0.053693        -1.955901
 O        -3.518442         0.854952        -2.841796
 C        -3.300481         1.760682        -1.737929
 H         1.900082         0.689392        -0.550840
 H         1.635035        -0.332344         0.903119
 H         1.725279        -1.264776        -0.645799
 H        -3.194141        -1.106365         0.510635
 H        -2.252113         0.270034         2.191698
 H        -4.678728         1.065304        -0.016625
 H        -4.122621        -1.133924        -2.283597
 H        -5.410130         0.095029        -2.002450
 H        -2.225545         1.815936        -1.644143
 H        -3.925221         2.625097        -1.797834
