19
Iteration:   670
 C         1.312612         0.288641         0.486036
 C         0.063027        -0.302453         0.096936
 C        -1.113991        -0.322791        -0.208580
 C        -2.626031        -0.212089        -0.222377
 O        -3.015041         0.076508         1.106860
 C        -2.936931         1.027461        -1.113995
 C        -4.446343         1.327033        -1.234035
 O        -4.473584         0.301342        -2.394022
 C        -3.138820         0.524054        -2.513391
 H         1.823437        -0.267430         1.284558
 H         2.114297         0.340034        -0.322710
 H         1.063618         1.340803         0.791615
 H        -3.372111        -1.018862        -0.566770
 H        -2.335744         0.687105         1.367914
 H        -2.172735         1.749918        -0.991253
 H        -5.139177         1.071696        -0.393182
 H        -4.754706         2.336311        -1.615485
 H        -2.644369        -0.446173        -2.790832
 H        -2.843521         1.330716        -3.181257
