19
Iteration:  3306charge 0 multiplicity 1
 C         1.318356        -0.108600        -0.601553
 C        -0.068471        -0.149035        -0.025495
 C        -1.211130         0.082010         0.359625
 C        -2.635948        -0.196612         0.248154
 O        -3.448746        -0.119637         1.464987
 C        -3.269015         0.808190        -0.760870
 C        -4.581732         0.585557        -1.576982
 O        -3.871031         1.069772        -2.797732
 C        -2.579854         0.838979        -2.117539
 H         1.675603        -1.062526        -0.683534
 H         1.114568         0.340382        -1.611017
 H         1.968902         0.522915         0.108612
 H        -2.873907        -1.354554         0.008375
 H        -3.424826         0.814726         1.825788
 H        -3.252871         1.907205        -0.386735
 H        -5.100522        -0.376940        -1.595647
 H        -5.401094         1.316039        -1.347179
 H        -2.024977        -0.141074        -2.367858
 H        -1.938137         1.666872        -2.441889
