19
Iteration:  2763
 C         1.571249        -0.135962         0.137861
 C         0.135687         0.112722         0.247052
 C        -1.071497         0.015809         0.106084
 C        -2.558840        -0.129988        -0.155818
 O        -3.191676        -0.519223         1.119238
 C        -3.112031         1.030579        -0.969513
 C        -4.697895         0.903219        -1.215889
 O        -4.424760         1.122279        -2.718010
 C        -3.049462         0.648042        -2.419960
 H         1.951753        -0.463951         1.150856
 H         1.672290        -1.077104        -0.402516
 H         2.257072         0.619459        -0.408502
 H        -2.622953        -1.084416        -0.624862
 H        -2.627679        -0.112819         1.829906
 H        -2.714619         1.990211        -0.593539
 H        -4.975990        -0.167945        -1.116857
 H        -5.435406         1.696674        -0.905167
 H        -2.732340        -0.380055        -2.470362
 H        -2.239914         1.164117        -3.163850
