19
Iteration:  1350charge 0 multiplicity 1
 C         1.284634        -0.320027        -0.122652
 C        -0.139285        -0.449864        -0.236444
 C        -1.316703        -0.186806        -0.118550
 C        -2.695425        -0.088588         0.136876
 O        -2.882619         0.480509         1.462768
 C        -3.647935         0.800518        -0.689612
 C        -4.335006         0.001519        -1.818510
 O        -3.672831         0.776855        -2.846493
 C        -3.127120         1.741951        -1.807212
 H         1.621596         0.482697        -0.713188
 H         1.645073        -0.074588         0.936025
 H         1.851176        -1.122560        -0.548655
 H        -3.174520        -1.165831         0.137276
 H        -2.347888         0.047083         2.127659
 H        -4.345777         1.373620        -0.057497
 H        -4.251258        -1.075965        -1.913504
 H        -5.408794         0.036011        -1.773988
 H        -2.009551         1.807521        -1.840860
 H        -3.660832         2.759373        -1.873038
