19
Iteration:  1459charge 0 multiplicity 1
 C         1.439958        -0.147205        -0.431294
 C         0.042875        -0.120699        -0.007970
 C        -1.174549         0.023098         0.347763
 C        -2.629371        -0.111735         0.207374
 O        -3.474963        -0.006069         1.435268
 C        -3.259499         0.861699        -0.823216
 C        -4.561222         0.399817        -1.542919
 O        -4.067616         1.030046        -2.825979
 C        -2.678986         0.936565        -2.223303
 H         1.607792         0.303736        -1.405781
 H         2.124891         0.490675         0.370318
 H         1.686253        -1.219012        -0.262442
 H        -2.836742        -1.057552        -0.213441
 H        -3.020652         0.493637         2.175954
 H        -3.321953         1.887265        -0.385100
 H        -4.514976        -0.756434        -1.554267
 H        -5.563602         0.791416        -1.319926
 H        -2.280210        -0.064071        -2.371431
 H        -2.068045         1.817057        -2.617899
