19
Iteration:  4084
 C         1.492572        -0.213896         0.201181
 C         0.073858        -0.229471         0.162014
 C        -1.099798         0.060988        -0.064537
 C        -2.537498        -0.141460        -0.208587
 O        -3.179281        -0.407480         1.033669
 C        -3.141603         1.069009        -0.811580
 C        -4.674295         0.880309        -1.241018
 O        -4.332653         0.733600        -2.615468
 C        -3.006742         1.231120        -2.362008
 H         1.946909        -0.733190         1.066029
 H         1.922528        -0.637055        -0.717084
 H         1.918954         0.837892         0.222050
 H        -2.621342        -1.147910        -0.819550
 H        -2.690606        -0.935445         1.671621
 H        -2.911622         1.976225        -0.278597
 H        -5.066677        -0.115279        -0.782425
 H        -5.128420         1.853820        -1.135958
 H        -2.250807         0.668121        -2.914445
 H        -2.926163         2.284568        -2.638288
