19
Iteration:  4795
 C         1.551339         0.022228         0.427893
 C         0.156462        -0.130820         0.240249
 C        -1.008101        -0.314593        -0.058076
 C        -2.479515        -0.230271        -0.342374
 O        -3.187641        -0.671583         0.846694
 C        -3.049246         0.994839        -0.962383
 C        -4.581404         1.022079        -1.039243
 O        -4.610407         1.126689        -2.506632
 C        -3.095063         1.044425        -2.530127
 H         1.837135         0.447546         1.430271
 H         2.159332        -0.939204         0.325664
 H         1.949393         0.694250        -0.322336
 H        -2.625896        -1.187379        -0.960164
 H        -3.080923        -0.020038         1.583512
 H        -2.632361         1.918010        -0.731863
 H        -5.032256         0.039241        -0.748894
 H        -5.015675         1.954770        -0.419292
 H        -2.764281         0.064933        -2.912786
 H        -2.683330         1.995838        -3.051052
