19
Iteration:  1272charge 0 multiplicity 1
 C         1.202540        -0.510099        -0.377048
 C        -0.274423        -0.333164        -0.229075
 C        -1.456320        -0.334150        -0.259883
 C        -2.912665        -0.083879         0.353394
 O        -2.779406         0.923509         1.383354
 C        -3.942811         0.416911        -0.675695
 C        -3.916005        -0.158424        -2.062087
 O        -3.377667         0.968173        -2.717224
 C        -3.282303         1.742358        -1.431309
 H         1.570256         0.411099        -0.558657
 H         1.682183        -0.706974         0.644173
 H         1.418710        -1.269188        -1.085333
 H        -3.120146        -1.024439         0.946951
 H        -1.850368         1.230503         1.468485
 H        -4.848875         0.549731        -0.119953
 H        -3.152858        -1.058273        -2.035378
 H        -4.859367        -0.552561        -2.484738
 H        -2.197425         1.748333        -1.278072
 H        -3.835491         2.716455        -1.503555
