19
Iteration:  2878charge 0 multiplicity 1
 C         1.276700         0.359885         0.633104
 C         0.114221        -0.348490         0.200716
 C        -1.012091        -0.490018        -0.267796
 C        -2.470902        -0.440703        -0.366484
 O        -3.021358        -0.089610         1.022015
 C        -2.912764         0.704332        -1.189816
 C        -4.349709         1.116110        -0.981819
 O        -4.600043         1.247271        -2.416493
 C        -3.347386         0.585580        -2.672188
 H         0.913782         1.369019         0.973762
 H         1.927428        -0.116919         1.444194
 H         1.837665         0.838951        -0.243644
 H        -2.891295        -1.342097        -0.718049
 H        -2.581715        -0.717152         1.628291
 H        -2.189845         1.539543        -1.158623
 H        -4.649408         0.246341        -0.314474
 H        -4.520812         2.083134        -0.532474
 H        -3.452887        -0.380040        -3.195295
 H        -2.745398         1.272273        -3.373612
