19
Iteration:    31
 C         1.521321        -0.244281         0.340323
 C         0.103574        -0.145699        -0.082748
 C        -1.083099         0.120225        -0.089723
 C        -2.569987         0.157641         0.033190
 O        -2.997254         0.161163         1.367084
 C        -3.298807         0.994888        -0.968808
 C        -4.641998         0.561237        -1.381145
 O        -4.393415         0.610421        -2.748097
 C        -3.038917         0.679538        -2.464254
 H         1.728420        -0.260478         1.350871
 H         1.931521        -1.365467         0.039674
 H         2.072801         0.516816        -0.208542
 H        -2.931498        -0.821326        -0.268045
 H        -2.534992         0.928344         1.820937
 H        -3.308490         2.119007        -0.870863
 H        -4.885177        -0.448114        -1.120612
 H        -5.417349         1.404338        -1.159953
 H        -2.550807        -0.241367        -2.756519
 H        -2.473297         1.500839        -2.901420
