19
Iteration:  3286charge 0 multiplicity 1
 C         1.241916        -0.146568        -0.691511
 C        -0.079190         0.018303        -0.044060
 C        -1.168646        -0.031282         0.499704
 C        -2.721492        -0.137359         0.326986
 O        -3.443853        -0.184693         1.555772
 C        -3.255865         0.842920        -0.746969
 C        -4.512247         0.648548        -1.651280
 O        -3.851465         0.960759        -2.870816
 C        -2.577159         0.934816        -2.173124
 H         1.398059        -1.171729        -0.899360
 H         1.335082         0.279234        -1.709310
 H         1.973432         0.164428         0.170401
 H        -2.837847        -1.150882        -0.126834
 H        -3.182935         0.593532         2.049306
 H        -3.433683         1.920772        -0.355929
 H        -4.760869        -0.443937        -1.622191
 H        -5.490774         1.095314        -1.401210
 H        -2.085420         0.064508        -2.458972
 H        -2.025645         1.840756        -2.351294
