19
Iteration:  2526charge 0 multiplicity 1
 C         1.416480        -0.007421        -0.416762
 C         0.071314        -0.173142         0.248257
 C        -1.134161        -0.213225         0.404362
 C        -2.613129        -0.117885         0.114310
 O        -3.451765         0.008005         1.254029
 C        -3.112247         0.973100        -0.855933
 C        -4.558920         0.535839        -1.376518
 O        -4.142785         0.812487        -2.760146
 C        -2.789579         1.053669        -2.349715
 H         1.412919        -0.587477        -1.326281
 H         1.515755         1.048450        -0.901737
 H         2.269221        -0.297323         0.131289
 H        -2.697972        -1.040579        -0.447189
 H        -3.130282        -0.592069         1.939878
 H        -3.269102         1.888974        -0.282863
 H        -4.827355        -0.578282        -1.356785
 H        -5.393851         1.083169        -0.932976
 H        -1.936532         0.425929        -2.769053
 H        -2.503307         2.070750        -2.684953
