19
Iteration:   271
 C         1.243223        -0.085743        -0.613339
 C        -0.129815        -0.058456        -0.059885
 C        -1.306096        -0.216396         0.310371
 C        -2.746751        -0.015085         0.326381
 O        -3.312256         0.560039         1.604016
 C        -3.215300         0.900742        -0.836392
 C        -4.517127         0.391570        -1.532250
 O        -3.896531         0.509470        -2.842921
 C        -2.545106         0.849253        -2.249456
 H         1.426433         0.625297        -1.455448
 H         1.967139         0.166489         0.258322
 H         1.469822        -1.115338        -0.928995
 H        -3.260995        -0.985196         0.196272
 H        -2.844810         0.096822         2.313275
 H        -3.352714         1.923906        -0.416700
 H        -4.693999        -0.685192        -1.359015
 H        -5.441646         1.067658        -1.493593
 H        -1.908842        -0.045712        -2.440950
 H        -2.125174         1.816747        -2.509992
