19
Iteration:  3958charge 0 multiplicity 1
 C         1.394456        -0.202391        -0.256319
 C        -0.005589        -0.186956        -0.098635
 C        -1.183844        -0.262559        -0.012934
 C        -2.714331        -0.161126         0.144928
 O        -3.212467        -0.026076         1.491503
 C        -3.411689         0.994867        -0.684583
 C        -4.642666         0.483523        -1.630567
 O        -3.868986         0.824617        -2.892891
 C        -2.804302         1.395150        -2.012419
 H         1.803830        -1.081170        -0.707024
 H         1.806994         0.492505        -0.986471
 H         1.925814         0.077661         0.571819
 H        -3.113605        -1.239494        -0.100496
 H        -2.625539        -0.230517         2.264867
 H        -3.808099         1.946439        -0.085318
 H        -4.881902        -0.572133        -1.380263
 H        -5.652470         0.904041        -1.685744
 H        -1.827317         0.832681        -2.242458
 H        -2.614459         2.525919        -2.146348
