19
Iteration:   391charge 0 multiplicity 1
 C         1.359531         0.107304        -0.380922
 C        -0.075663         0.055957        -0.104930
 C        -1.250242        -0.191780         0.152083
 C        -2.701268        -0.138768         0.284318
 O        -3.351698         0.321821         1.522197
 C        -3.112267         0.838611        -0.830362
 C        -4.525977         1.020041        -1.472431
 O        -4.039654         0.489481        -2.765206
 C        -2.707105         0.352453        -2.305036
 H         1.428495        -0.179519        -1.502430
 H         1.933548         1.095420        -0.262550
 H         2.035093        -0.495516         0.262428
 H        -3.083247        -1.147462         0.027075
 H        -3.271317        -0.385619         2.230468
 H        -2.735842         1.861099        -0.509123
 H        -5.438572         0.556405        -1.053622
 H        -4.693927         2.130723        -1.586251
 H        -2.550332        -0.742687        -2.466093
 H        -1.921400         0.959375        -2.879276
