19
Iteration:   494
 C         1.556359        -0.144327         0.591204
 C         0.217291        -0.025659        -0.062071
 C        -1.021645        -0.042199        -0.034905
 C        -2.557620        -0.102596        -0.045504
 O        -2.911997         0.402805         1.277455
 C        -3.168154         0.813624        -1.138296
 C        -4.698181         0.750611        -1.134782
 O        -4.576446         0.651801        -2.772849
 C        -3.176065         0.464594        -2.671534
 H         2.048155        -1.009792         0.156723
 H         2.265483         0.806231         0.398882
 H         1.475498        -0.343388         1.699113
 H        -3.050857        -1.062666        -0.168053
 H        -2.718748         1.321630         1.069250
 H        -2.835833         1.754326        -0.887973
 H        -5.217083        -0.127911        -0.710508
 H        -5.205730         1.685828        -0.831488
 H        -2.808569        -0.526099        -3.092818
 H        -2.674526         1.221575        -3.289471
