19
Iteration:  3625charge 0 multiplicity 1
 C         1.472253        -0.116359         0.631434
 C         0.029299        -0.231788         0.279035
 C        -1.081783        -0.100800        -0.301573
 C        -2.480166        -0.232740        -0.357219
 O        -3.043945        -0.164766         0.985157
 C        -2.960755         1.057282        -1.171581
 C        -4.524168         1.160474        -1.058116
 O        -4.600922         0.558609        -2.375678
 C        -3.168849         0.920696        -2.646717
 H         1.576377         0.925719         1.110765
 H         1.712387        -0.799013         1.508214
 H         2.016368        -0.333152        -0.393497
 H        -2.908631        -1.185872        -0.985641
 H        -2.372529         0.082602         1.681669
 H        -2.453881         1.882755        -0.667885
 H        -5.029348         0.567710        -0.346699
 H        -4.790744         2.271667        -1.167580
 H        -2.689977         0.204335        -3.252662
 H        -2.894180         1.741250        -3.272348
