19
Iteration:  2658charge 0 multiplicity 1
 C         1.396448        -0.122932        -0.019717
 C        -0.037171        -0.248044        -0.073567
 C        -1.245362        -0.184911        -0.175607
 C        -2.698237        -0.089110         0.001954
 O        -3.063792        -0.089416         1.387465
 C        -3.374480         1.069296        -0.750115
 C        -4.700253         0.627203        -1.459912
 O        -3.919412         0.518602        -2.742784
 C        -2.857902         1.361830        -2.151761
 H         1.885562        -0.968093         0.436364
 H         1.749198        -0.040075        -1.096506
 H         1.758045         0.808615         0.486502
 H        -3.013762        -1.135129        -0.398712
 H        -2.297903         0.269185         1.857687
 H        -3.419101         1.969320        -0.109801
 H        -5.238451        -0.356240        -1.244971
 H        -5.428206         1.462044        -1.531363
 H        -1.824978         0.875663        -2.419183
 H        -2.941299         2.429263        -2.276938
