19
Iteration:  2025charge 0 multiplicity 1
 C         1.296557        -0.119932        -0.597108
 C        -0.022181        -0.116982         0.102472
 C        -1.223252        -0.011655         0.404550
 C        -2.625353        -0.042706         0.255398
 O        -3.464283         0.414390         1.412963
 C        -3.057611         0.828208        -0.869464
 C        -4.474669         0.663591        -1.348987
 O        -4.076862         0.642546        -2.770819
 C        -2.642675         0.515627        -2.355806
 H         2.028501        -0.751234         0.046522
 H         1.341652        -0.619248        -1.487999
 H         1.555033         0.906557        -0.615027
 H        -3.235465        -1.038591         0.124550
 H        -3.448157         1.379085         1.416610
 H        -2.837134         1.879520        -0.653684
 H        -4.981054        -0.229772        -0.874507
 H        -5.126802         1.537702        -1.172884
 H        -2.356823        -0.551581        -2.609581
 H        -2.003088         1.145265        -3.049552
