19
Iteration:   587charge 0 multiplicity 1
 C         1.687611        -0.318609         0.853379
 C         0.336427         0.109435         0.242984
 C        -0.835780         0.368513        -0.089549
 C        -2.315873         0.014878        -0.326166
 O        -3.128050         0.215417         0.943982
 C        -3.059464         0.884517        -1.277294
 C        -4.604906         0.885960        -1.151085
 O        -4.878439         0.549163        -2.425999
 C        -3.419196         0.333996        -2.773777
 H         1.578646        -1.480474         0.952389
 H         2.477639        -0.165352         0.222376
 H         1.950222         0.037482         1.843637
 H        -2.450202        -1.023207        -0.577855
 H        -2.715064        -0.447769         1.584708
 H        -2.635067         1.986317        -1.492133
 H        -5.065450         0.208528        -0.427155
 H        -4.922537         1.936488        -0.982429
 H        -3.112543        -0.623904        -3.194267
 H        -3.193302         1.166981        -3.492661
