19
Iteration:  4870charge 0 multiplicity 1
 C         1.503851        -0.188240         0.603376
 C         0.083288        -0.059259         0.201650
 C        -1.066166        -0.109011        -0.187901
 C        -2.476237        -0.132633        -0.464316
 O        -3.024315        -0.740329         0.790432
 C        -3.051652         1.193733        -0.984159
 C        -4.587053         1.120635        -0.989947
 O        -4.600335         0.772072        -2.398591
 C        -3.148667         1.164060        -2.566231
 H         1.949662         0.660611         1.140109
 H         1.635961        -1.074071         1.255249
 H         2.138577        -0.470120        -0.249067
 H        -2.726811        -0.853926        -1.172859
 H        -2.358563        -0.559438         1.462689
 H        -2.676638         2.176663        -0.630618
 H        -5.144905         0.405013        -0.212484
 H        -5.171646         1.960345        -0.822734
 H        -2.488545         0.402770        -3.041756
 H        -2.972953         2.112325        -2.886150
