19
Iteration:  2107
 C         1.346246        -0.128544         0.250455
 C        -0.078355        -0.108022        -0.132041
 C        -1.275103        -0.130243        -0.309242
 C        -2.680852        -0.031982         0.137406
 O        -2.772324         0.494932         1.494471
 C        -3.316215         0.787854        -0.869425
 C        -4.739108         0.691545        -1.480276
 O        -4.234624         0.679506        -2.847878
 C        -2.798150         0.589146        -2.305635
 H         1.514680        -0.038724         1.243146
 H         1.875384        -1.019516        -0.242630
 H         2.025751         0.673098        -0.170009
 H        -3.207941        -1.005706         0.117612
 H        -2.071771         0.159635         2.047341
 H        -3.123832         1.860319        -0.604039
 H        -5.072417        -0.427005        -1.322397
 H        -5.396181         1.490018        -1.125082
 H        -2.562846        -0.508660        -2.448262
 H        -2.081931         1.161967        -2.869258
