19
Iteration:  2019
 C         1.268595        -0.109624        -0.609728
 C        -0.087151        -0.125728         0.069018
 C        -1.182664        -0.024317         0.515385
 C        -2.618931        -0.049192         0.252785
 O        -3.487953         0.419697         1.367032
 C        -3.006462         0.830310        -0.859732
 C        -4.459079         0.681266        -1.314937
 O        -4.059317         0.618181        -2.758232
 C        -2.650645         0.528317        -2.396171
 H         1.898217        -0.682925         0.024822
 H         1.218614        -0.600183        -1.695374
 H         1.720352         0.941824        -0.680381
 H        -2.951973        -1.021181         0.028532
 H        -3.520388         1.375008         1.254340
 H        -2.771802         1.874533        -0.522148
 H        -5.098331        -0.212904        -0.974257
 H        -5.178773         1.488546        -1.091354
 H        -2.414649        -0.531501        -2.457324
 H        -2.020483         1.151670        -3.014394
