19
Iteration:  2267
 C         1.521289        -0.355432         0.614105
 C         0.172785         0.066238         0.172241
 C        -1.010729         0.391411        -0.014629
 C        -2.390219        -0.060426        -0.229947
 O        -2.980057        -0.232539         1.091002
 C        -3.125045         0.901495        -1.139158
 C        -4.632499         1.228783        -1.238045
 O        -4.722544         0.715868        -2.608547
 C        -3.232729         0.404066        -2.583780
 H         2.159104         0.602722         0.891869
 H         1.524142        -0.933355         1.469929
 H         1.945686        -0.891376        -0.214077
 H        -2.378464        -0.979757        -0.950353
 H        -2.328255        -0.380732         1.818275
 H        -2.407865         1.763398        -1.114325
 H        -5.271143         0.649190        -0.505016
 H        -4.640419         2.313937        -1.379549
 H        -3.094199        -0.622900        -2.876568
 H        -2.629155         0.993993        -3.358595
