19
Iteration:   230
 C         1.350732        -0.178486        -0.227330
 C        -0.152663        -0.224071        -0.240529
 C        -1.313636         0.086780        -0.002535
 C        -2.750496         0.026845         0.260233
 O        -2.960520         0.619194         1.597881
 C        -3.510939         0.814517        -0.782561
 C        -4.677453         0.243283        -1.648832
 O        -3.913776         0.579888        -2.868214
 C        -2.630112         0.906208        -2.101175
 H         1.784310         0.660166        -0.592565
 H         1.741446        -0.418503         0.827541
 H         1.772942        -1.068406        -0.687887
 H        -3.051802        -1.055629         0.153992
 H        -2.659101         0.016956         2.277553
 H        -3.572913         1.844355        -0.508677
 H        -4.748214        -0.871963        -1.588253
 H        -5.641261         0.793434        -1.471105
 H        -1.852712         0.098554        -2.312839
 H        -2.275049         1.891843        -2.385203
