19
Iteration:  3803
 C         1.407099        -0.089795        -0.423434
 C        -0.018489        -0.050843        -0.013316
 C        -1.251194        -0.181516         0.294743
 C        -2.704517        -0.188244         0.150602
 O        -3.423684        -0.026514         1.434563
 C        -3.267674         0.814700        -0.791600
 C        -4.522926         0.517023        -1.558684
 O        -4.001376         1.119086        -2.716007
 C        -2.624466         0.950220        -2.231989
 H         1.462670         0.102063        -1.520314
 H         1.971041         0.622558         0.190567
 H         1.760428        -1.247036        -0.358435
 H        -2.905519        -1.138476        -0.274453
 H        -2.817628        -0.059351         2.186906
 H        -3.236537         1.875170        -0.416640
 H        -4.640103        -0.566082        -1.838747
 H        -5.467158         0.991777        -1.183371
 H        -2.237294         0.006954        -2.586990
 H        -2.019633         1.844361        -2.324032
