19
Iteration:   686charge 0 multiplicity 1
 C         1.326953         0.345135         0.386563
 C        -0.027637        -0.216605        -0.056901
 C        -1.192294        -0.527247        -0.214091
 C        -2.651848        -0.171557        -0.122330
 O        -3.076746         0.037077         1.255146
 C        -2.910324         1.006839        -1.084311
 C        -4.435245         1.294881        -1.299049
 O        -4.491736         0.359621        -2.379067
 C        -2.908301         0.527943        -2.546262
 H         1.718059        -0.090428         1.373301
 H         2.058298         0.314542        -0.393714
 H         1.219718         1.398456         0.704067
 H        -3.199882        -1.051136        -0.395213
 H        -2.812137         0.938371         1.486980
 H        -2.261642         1.908390        -0.784339
 H        -5.060393         0.999979        -0.469277
 H        -4.624853         2.311681        -1.630735
 H        -2.305151        -0.331959        -2.810176
 H        -2.771441         1.266724        -3.384821
