19
Iteration:  1701charge 0 multiplicity 1
 C         1.557995        -0.433541         0.841444
 C         0.296144         0.110474         0.306161
 C        -0.874585         0.168151        -0.125686
 C        -2.311220         0.068749        -0.324750
 O        -2.882526        -0.011121         0.999573
 C        -3.144473         1.030730        -1.278248
 C        -4.730734         1.062566        -1.170238
 O        -4.801938         0.629001        -2.584020
 C        -3.415010         0.386234        -2.655257
 H         2.146505        -0.968471         0.162228
 H         2.263126         0.413218         1.151960
 H         1.393683        -1.018028         1.764001
 H        -2.406451        -1.083918        -0.779643
 H        -2.339049         0.541724         1.544541
 H        -2.945495         2.137307        -1.323920
 H        -5.107261         0.346091        -0.389267
 H        -5.299212         2.105508        -1.074664
 H        -3.061570        -0.631397        -2.722203
 H        -2.949579         0.715247        -3.640074
