19
Iteration:  1745
 C         1.332639        -0.556785         0.657616
 C         0.222407         0.125233         0.198632
 C        -0.940978         0.515024        -0.079427
 C        -2.337821         0.096718        -0.200764
 O        -2.889958         0.122077         1.124796
 C        -3.114817         0.874817        -1.238903
 C        -4.669571         0.794062        -1.112895
 O        -4.681807         0.702313        -2.633743
 C        -3.260816         0.406446        -2.696219
 H         1.607432        -1.188821        -0.123545
 H         2.332920         0.043917         0.634396
 H         1.165687        -0.943628         1.667689
 H        -2.443438        -1.055694        -0.620873
 H        -2.190151         0.471606         1.651231
 H        -2.639300         1.923547        -1.188076
 H        -5.167570        -0.131654        -0.731902
 H        -5.317606         1.658285        -0.625291
 H        -3.089894        -0.733425        -2.833521
 H        -2.599761         0.877724        -3.556462
