19
Iteration:  1112
 C         0.735514        -0.918852        -1.062162
 C        -0.390283        -0.348182        -0.370307
 C        -1.320045         0.058657         0.344075
 C        -2.744769         0.073564         0.618173
 O        -3.278575         1.142177         1.396882
 C        -3.575945         0.214326        -0.706263
 C        -3.051026        -0.243940        -2.112421
 O        -3.289735         1.084189        -2.630305
 C        -3.552422         1.653762        -1.345073
 H         1.579264        -0.139338        -1.216595
 H         1.238032        -1.759926        -0.668677
 H         0.634779        -1.018107        -2.135455
 H        -3.010889        -0.861390         1.203134
 H        -3.781326         0.768066         2.122093
 H        -4.634283        -0.129021        -0.476837
 H        -2.050107        -0.480302        -2.067667
 H        -3.579003        -1.088528        -2.544948
 H        -2.702467         2.258080        -1.003804
 H        -4.498491         2.164199        -1.380474
