19
Iteration:  2706
 C         1.507344        -0.135467         0.026763
 C         0.080514        -0.213920        -0.044190
 C        -1.107984        -0.082446         0.068723
 C        -2.581312        -0.223015        -0.011942
 O        -3.247587        -0.144882         1.240957
 C        -3.189761         0.897543        -0.831382
 C        -4.593395         0.660291        -1.350551
 O        -4.252866         0.779324        -2.681070
 C        -2.935101         1.262077        -2.395448
 H         1.767500        -0.709404         1.017540
 H         2.063466        -0.513304        -0.810645
 H         1.790344         0.834884         0.268374
 H        -2.709159        -1.271115        -0.343746
 H        -3.174014         0.764588         1.578275
 H        -3.121135         1.789593        -0.127058
 H        -5.032896        -0.339640        -1.234962
 H        -5.417641         1.351289        -0.970770
 H        -2.113627         0.683049        -2.850134
 H        -2.921868         2.424879        -2.558589
