19
Iteration:  3331
 C         1.403915        -0.037410        -0.419113
 C        -0.075844        -0.123339         0.006646
 C        -1.289151        -0.119850         0.115066
 C        -2.742942        -0.233761         0.161424
 O        -3.378923        -0.051419         1.456495
 C        -3.182492         0.838958        -0.792073
 C        -4.535424         0.600432        -1.452455
 O        -3.950296         1.112881        -2.732988
 C        -2.612262         0.783588        -2.203917
 H         1.959870        -0.969449        -0.339661
 H         1.257800         0.190960        -1.491044
 H         1.875896         0.824799         0.173181
 H        -3.141260        -1.249447        -0.061260
 H        -3.511203         0.877628         1.700075
 H        -2.927788         1.909936        -0.420900
 H        -4.933867        -0.442700        -1.470449
 H        -5.415266         1.198323        -1.192713
 H        -2.336329        -0.207051        -2.493956
 H        -1.858888         1.542616        -2.479336
