19
Iteration:   240
 C         1.325092        -0.167972        -0.331316
 C        -0.143609        -0.222956        -0.304681
 C        -1.307735         0.032886         0.094529
 C        -2.768287         0.008587         0.219907
 O        -3.085635         0.622873         1.693611
 C        -3.397613         0.876730        -0.815179
 C        -4.591127         0.325429        -1.634079
 O        -3.880992         0.540100        -2.859401
 C        -2.663875         0.856665        -2.107143
 H         1.733042         0.670353        -0.747595
 H         1.582156        -0.007140         0.808721
 H         1.810662        -0.985467        -0.846329
 H        -3.208625        -1.020507         0.308872
 H        -2.741229        -0.099353         2.264142
 H        -3.455253         1.902847        -0.447148
 H        -4.648012        -0.810555        -1.445299
 H        -5.735655         0.531358        -1.628867
 H        -1.863178         0.083566        -2.388376
 H        -2.148094         1.790229        -2.213558
