19
Iteration:  2273charge 0 multiplicity 1
 C         1.554280        -0.274068         0.611502
 C         0.192926         0.044638         0.235182
 C        -0.941833         0.359910        -0.045557
 C        -2.453145        -0.094737        -0.224660
 O        -2.985467        -0.252954         1.105637
 C        -3.112995         0.937831        -1.138387
 C        -4.601717         1.228906        -1.291272
 O        -4.755712         0.740620        -2.619577
 C        -3.284120         0.391071        -2.582074
 H         2.173843         0.548295         0.672849
 H         1.427897        -1.070483         1.484585
 H         2.028167        -0.993496        -0.136312
 H        -2.506198        -1.059939        -0.747968
 H        -2.291442        -0.457405         1.709770
 H        -2.465778         1.790567        -1.055145
 H        -5.217418         0.836099        -0.504028
 H        -4.745074         2.326541        -1.357226
 H        -2.884012        -0.637160        -2.930045
 H        -2.630461         0.955744        -3.220820
