19
Iteration:  4511
 C         1.405495        -0.070997        -0.294178
 C        -0.022698         0.057591        -0.141553
 C        -1.235798        -0.073843         0.041086
 C        -2.704492        -0.178209         0.030279
 O        -3.317043        -0.794283         1.134408
 C        -3.366147         1.112240        -0.572767
 C        -4.626611         0.721545        -1.462047
 O        -3.769134         0.763867        -2.645790
 C        -2.768094         1.464855        -1.953979
 H         1.505756        -0.840205        -1.103446
 H         1.846382         0.916866        -0.568556
 H         1.841161        -0.348272         0.667777
 H        -3.093180        -0.994567        -0.768552
 H        -2.988474        -0.314911         1.939695
 H        -3.474602         1.995917         0.208113
 H        -5.173739        -0.324602        -1.440767
 H        -5.403893         1.515372        -1.710173
 H        -1.766289         1.134826        -2.169973
 H        -2.796165         2.483357        -2.157442
