19
Iteration:  3153
 C         1.289139        -0.113678        -0.145601
 C        -0.132985        -0.135867         0.000467
 C        -1.299287        -0.289626        -0.222013
 C        -2.717621        -0.157545         0.001288
 O        -3.040631         0.079485         1.407443
 C        -3.369234         1.093970        -0.745700
 C        -4.638598         0.616193        -1.461811
 O        -3.858196         0.567307        -2.721495
 C        -2.754335         1.235277        -2.105765
 H         1.625655        -0.403267        -1.140171
 H         1.900078         0.820055         0.253162
 H         1.594655        -1.017173         0.649717
 H        -3.136222        -1.160336        -0.345972
 H        -2.334700        -0.411073         1.811271
 H        -3.385515         2.078301        -0.116183
 H        -4.913477        -0.404262        -1.066843
 H        -5.559188         1.223938        -1.636318
 H        -1.821975         0.807457        -2.270120
 H        -2.816882         2.288235        -2.489814
