19
Iteration:  2484
 C         1.471455         0.010390        -0.148782
 C         0.022931         0.070863         0.034659
 C        -1.183396        -0.063218         0.096065
 C        -2.681343        -0.217710         0.079998
 O        -3.280369        -0.112354         1.370844
 C        -3.226440         0.765662        -0.874624
 C        -4.647899         0.743533        -1.383641
 O        -4.147820         1.019810        -2.721816
 C        -2.759701         0.694051        -2.359163
 H         1.735172        -0.346184        -1.208591
 H         1.978842         1.045675         0.008997
 H         2.034233        -0.523537         0.589320
 H        -2.992840        -1.306172        -0.313372
 H        -2.782638        -0.686884         1.939212
 H        -2.886117         1.788331        -0.579632
 H        -5.228547        -0.151511        -1.152293
 H        -5.257779         1.585534        -1.077640
 H        -2.425747        -0.201724        -2.715283
 H        -1.989822         1.401998        -2.729336
