19
Iteration:    78
 C         1.465104        -0.540419         0.383583
 C         0.140948         0.088592         0.175597
 C        -1.032273         0.136078        -0.174166
 C        -2.428038         0.116553         0.045614
 O        -2.756510         0.414849         1.362250
 C        -3.386165         0.717280        -0.985524
 C        -4.789438         0.202169        -1.492624
 O        -4.538519         0.791654        -2.834112
 C        -3.068152         0.934515        -2.485825
 H         1.806185        -0.199109         1.370774
 H         1.431403        -1.629528         0.569331
 H         2.260086        -0.197673        -0.306850
 H        -2.607840        -0.954497         0.050083
 H        -2.395567         1.256338         1.617620
 H        -3.611462         1.680070        -0.572954
 H        -4.872602        -0.873181        -1.597302
 H        -5.600000         0.648690        -1.005970
 H        -2.426331         0.318862        -3.029482
 H        -2.797195         1.965047        -2.678798
