19
Iteration:  2815charge 0 multiplicity 1
 C         1.643787         0.126787         0.439552
 C         0.203280        -0.007726         0.098904
 C        -1.017585        -0.215869         0.052558
 C        -2.498910        -0.369896        -0.157577
 O        -3.231268        -0.355544         1.029336
 C        -3.099102         0.728345        -1.081283
 C        -4.542065         1.090375        -1.128404
 O        -4.554365         1.279927        -2.579534
 C        -3.254300         0.579086        -2.629354
 H         1.818265         0.608498         1.462579
 H         2.228992        -0.767422         0.408836
 H         2.023956         0.644473        -0.348616
 H        -2.610016        -1.431344        -0.601138
 H        -2.653925        -0.623129         1.792399
 H        -2.455480         1.661803        -0.805596
 H        -5.200485         0.316552        -0.747510
 H        -4.760354         2.134599        -0.827989
 H        -3.289219        -0.467323        -3.085696
 H        -2.480221         1.123674        -3.109531
