19
Iteration:  1431
 C         1.282680        -0.294485        -0.358193
 C        -0.081023        -0.028781        -0.031801
 C        -1.261413         0.157295         0.145557
 C        -2.612533        -0.097800         0.226463
 O        -3.281307         0.056562         1.521153
 C        -3.319590         0.716051        -0.792323
 C        -4.525652         0.230319        -1.646049
 O        -3.963740         0.971133        -2.818151
 C        -2.699236         1.195310        -2.163784
 H         1.698728         0.116433        -1.325827
 H         1.873107         0.016999         0.398972
 H         1.458155        -1.379325        -0.311830
 H        -2.823874        -1.224458        -0.038556
 H        -2.640552         0.385653         2.209803
 H        -3.746278         1.641147        -0.349162
 H        -4.454077        -0.857134        -1.775485
 H        -5.402198         0.797002        -1.372831
 H        -1.833363         0.502745        -2.429851
 H        -2.321296         2.195283        -2.330328
