19
Iteration:  3666charge 0 multiplicity 1
 C         1.506153         0.008745         0.452397
 C         0.135134        -0.299170         0.079992
 C        -1.050660        -0.473204        -0.062723
 C        -2.551867        -0.237984        -0.243625
 O        -3.156499        -0.037872         1.109245
 C        -3.081976         1.051940        -1.031002
 C        -4.636383         1.050315        -1.163531
 O        -4.504059         0.676200        -2.534136
 C        -3.043851         1.024626        -2.612396
 H         1.915430         1.105595         0.476613
 H         1.677686        -0.236324         1.519358
 H         2.235378        -0.252996        -0.188054
 H        -2.947788        -1.109749        -0.588009
 H        -2.458935        -0.443574         1.646374
 H        -2.545995         1.882147        -0.659955
 H        -5.104621         0.306859        -0.426987
 H        -5.050526         2.055642        -1.229562
 H        -2.417245         0.147925        -3.007006
 H        -2.777887         1.971798        -3.305376
