19
Iteration:  4618
 C         1.358209         0.142823        -0.271662
 C        -0.056321        -0.157362        -0.093753
 C        -1.270930        -0.149535         0.070142
 C        -2.675678        -0.419779        -0.030396
 O        -3.349703        -0.522882         1.224472
 C        -3.179512         0.849484        -0.681391
 C        -4.605689         0.670393        -1.416341
 O        -3.955726         1.137604        -2.689389
 C        -2.694607         1.357573        -2.027872
 H         2.011467        -0.672330        -0.046193
 H         1.636187         0.477716        -1.242778
 H         1.710470         0.887965         0.513672
 H        -2.829418        -1.234968        -0.606451
 H        -2.801388        -0.906888         1.963648
 H        -3.405869         1.444270         0.083421
 H        -4.860728        -0.580913        -1.543325
 H        -5.598491         1.175078        -1.215654
 H        -1.882178         0.696031        -2.483794
 H        -2.312350         2.510276        -2.094283
