19
Iteration:  2431charge 0 multiplicity 1
 C         1.389537         0.204686         0.253920
 C         0.006445        -0.097532        -0.049371
 C        -1.206120        -0.131511        -0.151938
 C        -2.624438        -0.274353        -0.018596
 O        -2.975598        -0.134343         1.410266
 C        -3.213758         0.743063        -0.931154
 C        -4.682552         0.995631        -1.339344
 O        -4.206734         1.171736        -2.755864
 C        -3.000011         0.373074        -2.414088
 H         2.052647         0.439825        -0.692256
 H         1.632166         1.134883         0.744403
 H         1.819344        -0.681016         0.693209
 H        -2.938409        -1.215369        -0.342795
 H        -2.297157        -0.519095         1.946585
 H        -2.660608         1.715112        -0.881710
 H        -5.350255         0.123223        -1.249419
 H        -5.110856         1.891784        -0.847874
 H        -2.848428        -0.825120        -2.567601
 H        -2.125619         0.748924        -2.993434
