19
Iteration:   564charge 0 multiplicity 1
 C         1.540997        -0.352878         0.761352
 C         0.237401         0.076659         0.317306
 C        -0.874786         0.355709        -0.043922
 C        -2.191182         0.150850        -0.260145
 O        -2.953537         0.144493         0.997215
 C        -3.131470         0.990659        -1.337432
 C        -4.616874         0.839369        -1.089301
 O        -4.843265         0.576498        -2.636621
 C        -3.475432         0.306309        -2.687355
 H         1.585678        -1.542942         0.721756
 H         2.306317         0.023536         0.193692
 H         1.756717        -0.117026         1.803659
 H        -2.242569        -0.884964        -0.562228
 H        -2.323778         0.244653         1.696032
 H        -2.669749         2.076877        -1.509052
 H        -4.838720        -0.146795        -0.667376
 H        -5.229034         1.638235        -0.689713
 H        -3.163110        -0.744617        -2.583478
 H        -3.021044         0.691596        -3.637234
