19
Iteration:  1469
 C         1.417974        -0.102806        -0.409229
 C         0.031916        -0.067253         0.033186
 C        -1.138044        -0.135689         0.375124
 C        -2.605671        -0.062704         0.216916
 O        -3.469289        -0.039220         1.374836
 C        -3.260071         0.922271        -0.805464
 C        -4.529218         0.482311        -1.527979
 O        -4.054702         1.017749        -2.802808
 C        -2.757217         0.838403        -2.277752
 H         1.592714         0.243028        -1.440543
 H         2.007264         0.647369         0.376590
 H         1.962768        -1.097086        -0.424844
 H        -2.761785        -1.043600        -0.120242
 H        -3.093009         0.546209         2.070676
 H        -3.336389         1.914321        -0.325364
 H        -4.831569        -0.580013        -1.664413
 H        -5.463219         0.954375        -1.117245
 H        -2.334845        -0.126561        -2.534830
 H        -1.991451         1.556952        -2.746176
