19
Iteration:  4153charge 0 multiplicity 1
 C         1.460609         0.055354         0.525118
 C         0.096487        -0.169283        -0.005684
 C        -1.073322        -0.191371        -0.191360
 C        -2.564804        -0.338253        -0.390174
 O        -3.209897        -0.447408         0.877371
 C        -2.962730         0.943760        -0.963992
 C        -4.518021         1.163220        -0.978490
 O        -4.512646         0.881196        -2.369420
 C        -3.079319         1.007549        -2.525099
 H         1.461224         0.172363         1.698234
 H         2.232902        -0.809406         0.453334
 H         1.986560         0.864717         0.053370
 H        -2.641062        -1.321928        -1.023631
 H        -2.689621        -0.920840         1.561543
 H        -2.456299         1.747907        -0.528617
 H        -5.170817         0.390588        -0.555211
 H        -4.761173         2.253504        -0.884023
 H        -2.593968         0.220959        -3.107403
 H        -2.839619         1.956720        -2.974373
