19
Iteration:   674charge 0 multiplicity 1
 C         1.331205         0.307107         0.465548
 C         0.042983        -0.282347         0.057921
 C        -1.122376        -0.370486        -0.212820
 C        -2.672660        -0.227560        -0.192510
 O        -3.022996         0.068062         1.134778
 C        -2.917755         1.043057        -1.120574
 C        -4.457768         1.330281        -1.231106
 O        -4.479871         0.306085        -2.405891
 C        -3.076724         0.513648        -2.501891
 H         1.875593        -0.295231         1.342915
 H         2.065367         0.378463        -0.272316
 H         0.979989         1.335470         0.662868
 H        -3.324050        -1.036850        -0.564356
 H        -2.431290         0.821112         1.451890
 H        -2.043262         1.774348        -0.994210
 H        -5.143534         1.107617        -0.426325
 H        -4.750092         2.288077        -1.628285
 H        -2.558472        -0.402463        -2.764782
 H        -2.864670         1.404858        -3.169409
