19
Iteration:  3816charge 0 multiplicity 1
 C         1.330570        -0.070745        -0.466924
 C        -0.012430        -0.060259        -0.047267
 C        -1.201530        -0.291315         0.264627
 C        -2.700849        -0.220908         0.264394
 O        -3.463595         0.018317         1.470061
 C        -3.219848         0.860652        -0.831897
 C        -4.547073         0.419952        -1.549946
 O        -3.993073         1.172382        -2.808271
 C        -2.579951         1.009296        -2.183278
 H         1.414356         0.166706        -1.505790
 H         2.039603         0.641772        -0.012427
 H         1.906311        -1.106116        -0.009383
 H        -3.094859        -1.122360        -0.070489
 H        -2.790431        -0.160787         2.169095
 H        -3.431421         1.793119        -0.204638
 H        -4.681099        -0.639558        -1.514744
 H        -5.526935         0.796432        -1.324565
 H        -2.106750         0.163702        -2.632425
 H        -1.965181         1.829432        -2.397762
