19
Iteration:  4255charge 0 multiplicity 1
 C         1.490374         0.133910         0.633316
 C         0.156852        -0.086945         0.158633
 C        -0.960138        -0.361053        -0.110602
 C        -2.422834        -0.366349        -0.390764
 O        -3.206622        -0.592039         0.877751
 C        -2.865238         0.889922        -1.128199
 C        -4.454282         1.103618        -1.004120
 O        -4.702523         1.297462        -2.426080
 C        -3.313574         0.843849        -2.599223
 H         1.684700         1.176396         0.893361
 H         1.802630        -0.618420         1.363588
 H         2.345548        -0.012075        -0.161771
 H        -2.632719        -1.210103        -1.073538
 H        -2.615820        -0.749304         1.643122
 H        -2.423029         1.880423        -0.790863
 H        -4.955697         0.260402        -0.631687
 H        -4.760738         1.968669        -0.317762
 H        -3.414780        -0.126576        -3.071850
 H        -2.784250         1.415349        -3.323230
