19
Iteration:  3397charge 0 multiplicity 1
 C         1.397781         0.100239         0.143976
 C        -0.033732        -0.280779         0.080509
 C        -1.228162        -0.306971        -0.173271
 C        -2.671791        -0.308713         0.044681
 O        -3.055400         0.043941         1.354052
 C        -3.128220         0.788252        -0.920979
 C        -4.649559         0.947583        -1.354420
 O        -4.229231         1.024357        -2.760646
 C        -2.868102         0.719329        -2.390381
 H         2.008990        -0.355777         0.935588
 H         1.831395        -0.080425        -0.861856
 H         1.541966         1.229874         0.271614
 H        -3.092435        -1.354266        -0.383009
 H        -2.321156        -0.353010         1.888644
 H        -2.760938         1.771349        -0.395763
 H        -5.333465         0.117077        -1.011994
 H        -5.166865         1.870447        -1.028604
 H        -2.452403        -0.241613        -2.805143
 H        -2.235263         1.555410        -2.793612
