19
Iteration:  2640
 C         1.334202        -0.163438        -0.116204
 C        -0.109192        -0.181161        -0.063260
 C        -1.317268         0.060576        -0.125690
 C        -2.732774        -0.172978         0.004684
 O        -2.943650        -0.125857         1.475396
 C        -3.443721         0.996780        -0.702680
 C        -4.650618         0.748708        -1.586460
 O        -3.849358         0.473702        -2.778569
 C        -2.835480         1.264794        -2.103073
 H         1.853802        -1.090455         0.316565
 H         1.712108         0.014842        -1.114338
 H         1.637368         0.501307         0.656539
 H        -3.079197        -1.097365        -0.346474
 H        -2.034787        -0.159586         1.826577
 H        -3.523638         1.802902         0.070156
 H        -5.298422        -0.012920        -1.238131
 H        -5.305490         1.635276        -1.730513
 H        -1.819290         1.042069        -2.274326
 H        -3.097641         2.301981        -2.528579
