19
Iteration:  2382
 C         1.414206         0.303804         0.379474
 C         0.058885        -0.197317         0.178293
 C        -1.079541        -0.641927         0.045159
 C        -2.517430        -0.337776        -0.161652
 O        -3.010031         0.119620         1.117755
 C        -3.022237         0.739079        -1.099844
 C        -4.542038         1.021703        -1.148548
 O        -4.520319         1.041395        -2.618056
 C        -3.152115         0.605649        -2.671693
 H         1.813592         1.030853        -0.261956
 H         1.415605         1.074171         1.261412
 H         2.188586        -0.517095         0.483847
 H        -3.106749        -1.325402        -0.316440
 H        -2.407299        -0.178861         1.850615
 H        -2.566973         1.692642        -0.901388
 H        -5.158981         0.160851        -0.924310
 H        -4.890196         1.982868        -0.739087
 H        -3.049187        -0.486378        -3.032579
 H        -2.387699         1.228502        -3.202067
