19
Iteration:   721
 C         1.315241         0.312681         0.054013
 C        -0.149470        -0.005260        -0.122184
 C        -1.292340        -0.372140         0.032314
 C        -2.763680        -0.303883         0.018108
 O        -3.173294         0.024501         1.332104
 C        -2.957850         0.856600        -0.986073
 C        -4.396206         1.213024        -1.335765
 O        -4.316825         0.495849        -2.572840
 C        -2.716416         0.513937        -2.410093
 H         1.733326        -0.155992         0.897956
 H         1.969676        -0.143125        -0.772547
 H         1.493720         1.373744         0.017735
 H        -3.370500        -1.092655        -0.313779
 H        -2.573917         0.731946         1.650912
 H        -2.256827         1.640220        -0.605262
 H        -5.022141         0.672879        -0.616467
 H        -4.739206         2.241392        -1.362829
 H        -2.238140        -0.444141        -2.599964
 H        -2.348582         1.407024        -2.970160
