19
Iteration:   569charge 0 multiplicity 1
 C         1.555938        -0.382318         0.773364
 C         0.276990         0.093732         0.311741
 C        -0.828630         0.369310        -0.067567
 C        -2.241934         0.161824        -0.225454
 O        -3.015477         0.145358         0.985900
 C        -3.147622         0.942334        -1.393623
 C        -4.596098         0.862784        -1.049521
 O        -4.845387         0.556162        -2.599091
 C        -3.456087         0.347922        -2.736899
 H         1.654903        -1.398607         0.863889
 H         2.439130         0.049425         0.128403
 H         1.689030        -0.050807         1.823906
 H        -2.240315        -0.934065        -0.574879
 H        -2.296770         0.059582         1.686485
 H        -2.677632         1.889381        -1.364498
 H        -4.856341        -0.095898        -0.585309
 H        -5.175808         1.746401        -0.696169
 H        -3.232198        -0.749951        -2.687059
 H        -3.007067         0.687648        -3.667357
