19
Iteration:   411charge 0 multiplicity 1
 C         1.371890         0.157958        -0.270732
 C        -0.005744        -0.129071         0.095760
 C        -1.222393        -0.236415         0.241015
 C        -2.744496        -0.144449         0.171132
 O        -3.151253         0.370722         1.525374
 C        -3.097816         0.798468        -0.976468
 C        -4.573634         1.036853        -1.504776
 O        -4.232788         0.525965        -2.822756
 C        -2.782693         0.399126        -2.354331
 H         1.653278        -0.211731        -1.332272
 H         1.561067         1.195042        -0.282276
 H         2.119512        -0.246547         0.439576
 H        -3.139886        -1.182834        -0.007835
 H        -2.707033        -0.241958         2.142359
 H        -2.635648         1.837251        -0.666888
 H        -5.235990         0.303191        -1.019384
 H        -4.956828         2.047185        -1.419661
 H        -2.266844        -0.539615        -2.520913
 H        -2.305985         1.259532        -2.910628
