19
Iteration:  3066
 C         1.575916        -0.303186         0.251085
 C         0.111423        -0.024923         0.243387
 C        -1.055705        -0.047311        -0.106913
 C        -2.514630        -0.016840        -0.185252
 O        -3.193806        -0.092828         1.094835
 C        -3.185942         1.092531        -0.952971
 C        -4.694876         0.718147        -1.216007
 O        -4.393060         0.652323        -2.617243
 C        -3.012774         1.033076        -2.431845
 H         2.043019         0.089665        -0.589906
 H         1.980190         0.056365         1.177827
 H         1.821133        -1.317937         0.014546
 H        -2.920701        -0.981490        -0.604270
 H        -2.603909        -0.528533         1.705166
 H        -2.946928         2.091256        -0.413368
 H        -4.856077        -0.288382        -0.837953
 H        -5.454398         1.420279        -0.924498
 H        -2.285414         0.316657        -2.763420
 H        -2.787951         1.933473        -3.151958
