19
Iteration:  2590charge 0 multiplicity 1
 C         1.394965        -0.222618        -0.296706
 C        -0.055411         0.075235        -0.167454
 C        -1.258077         0.010308         0.022228
 C        -2.718542        -0.100821         0.112498
 O        -3.240964        -0.088118         1.434450
 C        -3.389568         1.038054        -0.683007
 C        -4.629578         0.585444        -1.517386
 O        -3.822538         0.508508        -2.762429
 C        -2.718446         1.248315        -2.069548
 H         1.578984        -1.244854        -0.496677
 H         1.747461         0.368366        -1.141327
 H         2.052982        -0.082568         0.652702
 H        -3.193264        -1.002079        -0.433575
 H        -3.001811        -0.840595         1.960896
 H        -3.501510         1.952275        -0.129336
 H        -5.035121        -0.457785        -1.292981
 H        -5.450863         1.334159        -1.481684
 H        -1.791347         0.528184        -2.229445
 H        -2.597450         2.270544        -2.489203
