19
Iteration:  4069
 C         1.577480        -0.302490         0.143087
 C         0.096972        -0.146494         0.070505
 C        -1.111960         0.098409        -0.048457
 C        -2.519680        -0.131366        -0.168471
 O        -3.256253        -0.359145         1.098025
 C        -3.275472         1.053187        -0.841721
 C        -4.713136         0.801057        -1.225328
 O        -4.242969         0.726351        -2.640220
 C        -2.925563         1.252925        -2.313038
 H         1.765064        -0.922704         0.984045
 H         1.870627        -0.611565        -0.847251
 H         2.009392         0.669021         0.463834
 H        -2.700074        -0.872095        -0.823329
 H        -2.602420        -0.938588         1.497601
 H        -3.150847         1.953742        -0.054609
 H        -5.255026        -0.166562        -0.968769
 H        -5.464207         1.578774        -0.985765
 H        -2.016073         0.735839        -2.801424
 H        -2.729382         2.347533        -2.717926
