19
Iteration:  2201charge 0 multiplicity 1
 C         1.667664        -0.322718         0.516237
 C         0.183006        -0.146281         0.326356
 C        -0.979549         0.011145         0.050221
 C        -2.385536        -0.033146        -0.226690
 O        -3.154829         0.298615         0.975552
 C        -3.076728         0.972008        -1.143845
 C        -4.655407         0.762477        -1.158319
 O        -4.688642         0.664919        -2.572565
 C        -3.233829         0.687568        -2.684203
 H         2.139710         0.506498         1.219389
 H         1.935046        -1.318739         0.725484
 H         2.236326        -0.159655        -0.411170
 H        -2.569335        -1.022217        -0.466795
 H        -2.556494         0.006745         1.677260
 H        -2.824779         2.036583        -0.916577
 H        -4.886879        -0.296183        -0.699602
 H        -5.298784         1.629649        -0.803700
 H        -2.861632        -0.243569        -3.062367
 H        -2.780677         1.440409        -3.398241
