19
Iteration:  2452charge 0 multiplicity 1
 C         1.487331         0.095413         0.136695
 C         0.074112         0.055434        -0.228500
 C        -1.119340        -0.137897        -0.000142
 C        -2.681087        -0.260022         0.105012
 O        -3.121560        -0.176610         1.414243
 C        -3.236468         0.795737        -0.834366
 C        -4.739292         0.920214        -1.472611
 O        -4.141039         1.127560        -2.784794
 C        -2.983125         0.476920        -2.332279
 H         2.275710         0.175702        -0.718436
 H         1.603154         1.159578         0.487413
 H         1.713800        -0.702819         0.793748
 H        -2.848911        -1.210197        -0.397197
 H        -2.471502        -0.573156         2.048146
 H        -2.814970         1.807655        -0.588405
 H        -5.241204         0.052550        -1.175057
 H        -5.219682         1.839038        -1.209732
 H        -3.108365        -0.697537        -2.514235
 H        -2.026288         0.752717        -2.811543
