19
Iteration:  2510charge 0 multiplicity 1
 C         1.315056        -0.001493        -0.341860
 C         0.044278        -0.087411         0.233947
 C        -1.150531        -0.096660         0.285995
 C        -2.580376        -0.239307         0.052303
 O        -3.348836        -0.013905         1.274095
 C        -3.152329         0.877232        -0.841147
 C        -4.530485         0.604003        -1.384511
 O        -4.202885         0.879537        -2.762472
 C        -2.750405         0.989514        -2.342194
 H         1.326109        -0.592692        -1.303209
 H         1.649191         0.973367        -0.382245
 H         2.186306        -0.298617         0.345139
 H        -2.853029        -1.245152        -0.333254
 H        -3.047364        -0.609891         1.943434
 H        -2.891168         1.830995        -0.361660
 H        -4.762311        -0.396617        -1.046864
 H        -5.382208         1.282768        -1.118377
 H        -2.317282        -0.040968        -2.690612
 H        -2.141069         1.862085        -2.707838
