19
Iteration:  4608charge 0 multiplicity 1
 C         1.367775         0.126106        -0.291066
 C        -0.072695        -0.168034        -0.124548
 C        -1.250297        -0.166902         0.138854
 C        -2.683776        -0.356979        -0.023772
 O        -3.396072        -0.567117         1.201696
 C        -3.269054         0.925660        -0.690700
 C        -4.548956         0.594829        -1.409169
 O        -3.925305         1.086399        -2.692870
 C        -2.665799         1.402041        -2.004231
 H         1.904629        -0.814900        -0.250718
 H         1.478458         0.606039        -1.260199
 H         1.714924         0.896374         0.419245
 H        -2.821621        -1.176532        -0.627877
 H        -2.612768        -0.626464         1.791467
 H        -3.255632         1.637010         0.094183
 H        -4.831595        -0.502756        -1.492702
 H        -5.415819         1.204956        -1.024077
 H        -1.812631         0.754548        -2.357035
 H        -2.447671         2.580700        -2.103033
