19
Iteration:  3130
 C         1.460820        -0.196250         0.054244
 C        -0.037609        -0.129856        -0.136666
 C        -1.274882        -0.132641        -0.233961
 C        -2.717063        -0.113514         0.016599
 O        -2.992380         0.038745         1.444242
 C        -3.386147         1.035874        -0.758626
 C        -4.667402         0.709369        -1.483076
 O        -4.012843         0.517826        -2.758176
 C        -2.857510         1.220455        -2.200424
 H         2.030685        -0.207929        -0.902965
 H         1.790062         0.670626         0.780209
 H         1.731633        -1.192369         0.720523
 H        -3.076235        -1.135419        -0.348734
 H        -2.727188        -0.855171         1.805842
 H        -3.301622         1.948908        -0.086339
 H        -5.194354        -0.255583        -1.317050
 H        -5.385049         1.578360        -1.422269
 H        -1.949333         0.704958        -2.288445
 H        -2.782833         2.273190        -2.545884
