19
Iteration:  4351charge 0 multiplicity 1
 C         1.622006        -0.029804         0.454758
 C         0.192952        -0.024382         0.131088
 C        -1.038528        -0.184745        -0.098664
 C        -2.498094        -0.363013        -0.259223
 O        -3.072699        -0.617490         1.026418
 C        -3.167425         0.905109        -0.929941
 C        -4.763631         0.833916        -1.216357
 O        -4.535996         1.398924        -2.566050
 C        -3.120361         1.012689        -2.488815
 H         2.231902         0.639627        -0.238939
 H         1.910195         0.050887         1.535559
 H         2.093692        -0.957018         0.256097
 H        -2.586534        -1.318639        -0.940607
 H        -2.563364        -0.203584         1.731049
 H        -2.812677         1.822696        -0.580719
 H        -5.156431        -0.230018        -1.204396
 H        -5.575818         1.468699        -0.751702
 H        -2.932225        -0.095765        -2.881624
 H        -2.315079         1.686904        -2.936215
