19
Iteration:  1642charge 0 multiplicity 1
 C         1.449648         0.116147         0.752601
 C         0.110995        -0.215918         0.205452
 C        -1.057549        -0.281645        -0.087606
 C        -2.441501        -0.236273        -0.269394
 O        -3.053849         0.094220         0.955233
 C        -2.879005         0.825843        -1.337233
 C        -4.349586         1.222405        -1.055880
 O        -4.742119         0.573184        -2.391271
 C        -3.350198         0.600342        -2.756586
 H         2.204872        -0.006027        -0.157569
 H         1.424066         1.161498         0.991510
 H         1.848166        -0.456515         1.614707
 H        -2.923655        -1.249448        -0.661746
 H        -2.426894         0.757419         1.340352
 H        -2.237136         1.702178        -1.163587
 H        -4.885418         0.713974        -0.241620
 H        -4.592396         2.315048        -1.110824
 H        -3.019589        -0.351737        -3.286701
 H        -3.174862         1.503907        -3.294367
