19
Iteration:  4790charge 0 multiplicity 1
 C         1.529646         0.017739         0.401004
 C         0.130276        -0.151849         0.250736
 C        -1.044294        -0.289217        -0.053729
 C        -2.456711        -0.254741        -0.327354
 O        -3.181103        -0.655883         0.866361
 C        -3.061669         0.969048        -0.982359
 C        -4.551367         0.997092        -1.015407
 O        -4.564484         1.161680        -2.502994
 C        -3.137102         1.031304        -2.536424
 H         1.778774         0.448629         1.353907
 H         2.160216        -0.827434         0.314277
 H         1.872365         0.858781        -0.304810
 H        -2.695753        -1.040932        -1.020042
 H        -2.959692        -0.079142         1.599580
 H        -2.593776         1.996083        -0.707647
 H        -5.059998        -0.031282        -0.847232
 H        -4.919580         1.855082        -0.582510
 H        -2.587235         0.162044        -3.017278
 H        -2.695778         1.876207        -2.971412
