19
Iteration:   390charge 0 multiplicity 1
 C         1.358422         0.108088        -0.379133
 C        -0.081431         0.061600        -0.117419
 C        -1.249986        -0.181962         0.153058
 C        -2.702937        -0.148890         0.275889
 O        -3.359553         0.323248         1.526037
 C        -3.103662         0.840735        -0.827705
 C        -4.521653         1.023199        -1.473116
 O        -4.036287         0.487200        -2.767009
 C        -2.703181         0.350029        -2.293208
 H         1.417425        -0.178688        -1.518443
 H         1.916464         1.056846        -0.286126
 H         2.034692        -0.519241         0.237504
 H        -3.069593        -1.173540         0.015086
 H        -3.294343        -0.382578         2.225237
 H        -2.744693         1.895159        -0.464991
 H        -5.420482         0.533192        -1.045515
 H        -4.688336         2.117834        -1.569095
 H        -2.565138        -0.735813        -2.418218
 H        -1.914316         0.945585        -2.895272
