19
Iteration:  1691charge 0 multiplicity 1
 C         1.612775        -0.310590         0.846837
 C         0.281545         0.008483         0.305274
 C        -0.837478         0.033924        -0.091937
 C        -2.352215         0.090007        -0.358319
 O        -2.928132        -0.000352         0.950740
 C        -3.125770         1.047367        -1.287086
 C        -4.676217         1.052082        -1.194969
 O        -4.831732         0.621191        -2.501049
 C        -3.394372         0.393064        -2.681705
 H         2.173290        -0.848601         0.187068
 H         2.235474         0.547940         1.281085
 H         1.295031        -0.913962         1.710142
 H        -2.670826        -0.872243        -0.878925
 H        -2.397405         0.630704         1.440670
 H        -2.611388         2.036292        -1.218035
 H        -5.177244         0.405073        -0.432669
 H        -5.202859         2.104913        -1.107466
 H        -3.277762        -0.633076        -2.623070
 H        -3.025661         0.994956        -3.548410
