19
Iteration:   209
 C         1.359655        -0.303584        -0.098895
 C        -0.037177        -0.061170        -0.010686
 C        -1.256145        -0.054144        -0.101176
 C        -2.648192        -0.012259         0.196500
 O        -2.894519         0.660886         1.555279
 C        -3.492914         0.799246        -0.758766
 C        -4.639853         0.219067        -1.695732
 O        -4.020894         0.603383        -2.931220
 C        -2.901873         1.011188        -2.159713
 H         1.819894         0.641695        -0.356136
 H         1.835889        -0.619896         0.885517
 H         1.700950        -1.063247        -0.805367
 H        -3.048249        -1.033846         0.311242
 H        -2.280991         0.201593         2.162875
 H        -3.797630         1.687031        -0.249689
 H        -4.761642        -0.885634        -1.641856
 H        -5.562184         0.736776        -1.525386
 H        -2.165995         0.166396        -2.301570
 H        -2.400862         1.939570        -2.452269
