19
Iteration:    58
 C         1.513528        -0.456962         0.410660
 C         0.167626         0.007770         0.063778
 C        -0.995996         0.246107        -0.169911
 C        -2.500922        -0.042930        -0.010295
 O        -2.841970         0.342814         1.407021
 C        -3.420585         0.905970        -0.969504
 C        -4.804962         0.359763        -1.443931
 O        -4.457904         0.725057        -2.826619
 C        -3.071942         0.855409        -2.459579
 H         1.891414        -0.306661         1.507612
 H         1.516899        -1.449522         0.234395
 H         2.278659        -0.036074        -0.281188
 H        -2.758937        -1.113174        -0.120236
 H        -2.292416         1.180626         1.454156
 H        -3.556769         1.893289        -0.594479
 H        -4.882055        -0.790804        -1.410309
 H        -5.720100         0.722161        -1.128975
 H        -2.645432        -0.135902        -2.672830
 H        -2.386111         1.625829        -2.859850
