19
Iteration:  4800charge 0 multiplicity 1
 C         1.606964         0.021226         0.467704
 C         0.168332        -0.116673         0.223929
 C        -0.990771        -0.315152        -0.067411
 C        -2.474456        -0.255386        -0.335800
 O        -3.200412        -0.681842         0.832348
 C        -3.041422         1.028627        -0.975981
 C        -4.617359         1.060657        -1.058203
 O        -4.640548         1.094645        -2.503099
 C        -3.075276         1.055565        -2.518513
 H         1.842146         0.424282         1.442063
 H         2.036339        -0.964888         0.349661
 H         2.074871         0.577170        -0.388978
 H        -2.646409        -1.172527        -0.992124
 H        -3.158753         0.030958         1.490951
 H        -2.557026         1.982100        -0.473978
 H        -5.049885         0.179505        -0.551714
 H        -5.102546         1.780042        -0.502330
 H        -2.948995         0.046663        -2.950954
 H        -2.669069         1.910408        -3.055349
