19
Iteration:  3644charge 0 multiplicity 1
 C         1.458334        -0.039816         0.552359
 C         0.114183        -0.288460         0.224302
 C        -1.047805        -0.365872        -0.174051
 C        -2.522649        -0.178214        -0.303975
 O        -3.075552        -0.102274         1.009282
 C        -2.989199         1.057391        -1.059260
 C        -4.510916         1.156996        -1.116316
 O        -4.576360         0.582633        -2.505801
 C        -3.221598         0.931294        -2.601812
 H         1.781976         1.085422         0.758621
 H         1.744637        -0.477221         1.527341
 H         2.032083        -0.211165        -0.264241
 H        -2.991095        -0.988625        -0.788770
 H        -2.285608        -0.142207         1.592940
 H        -2.497981         1.918097        -0.685005
 H        -5.086795         0.366945        -0.597793
 H        -4.861682         2.187102        -1.160881
 H        -2.449163         0.400174        -3.214078
 H        -3.043409         2.032128        -3.010817
