19
Iteration:  3648
 C         1.515405        -0.009161         0.555983
 C         0.092343        -0.289409         0.188715
 C        -1.048485        -0.417921        -0.137837
 C        -2.529369        -0.189100        -0.283484
 O        -3.076207        -0.089147         1.023079
 C        -2.985926         1.080349        -1.071400
 C        -4.537019         1.139703        -1.127953
 O        -4.574479         0.587956        -2.526136
 C        -3.201310         0.949921        -2.588055
 H         1.653383         1.084216         0.738946
 H         1.766088        -0.452747         1.549338
 H         2.165405        -0.349391        -0.386381
 H        -3.115033        -1.040783        -0.906962
 H        -2.361407        -0.181933         1.658115
 H        -2.530318         1.972426        -0.581741
 H        -5.106869         0.396262        -0.648068
 H        -4.921817         2.206637        -1.125845
 H        -2.516118         0.434244        -3.210881
 H        -3.011146         1.915331        -3.000817
