19
Iteration:  4744
 C         1.514558         0.192618         0.310737
 C         0.128777        -0.113131         0.084568
 C        -1.045806        -0.413143        -0.089200
 C        -2.558892        -0.416137        -0.223915
 O        -3.198285        -0.456247         1.044303
 C        -3.088536         0.772123        -0.897024
 C        -4.705492         0.874599        -1.194823
 O        -4.389421         1.379013        -2.535057
 C        -3.028676         1.024453        -2.448915
 H         1.874298         0.063766         1.370920
 H         2.151088        -0.591294        -0.182732
 H         1.852631         1.165753         0.033505
 H        -2.823280        -1.341926        -0.700093
 H        -2.783212        -1.142390         1.578983
 H        -2.734413         1.784689        -0.470008
 H        -5.166554        -0.187960        -1.141244
 H        -5.171417         1.648606        -0.644157
 H        -2.905200         0.208059        -3.203891
 H        -2.202537         1.734576        -2.815944
