19
Iteration:  3946charge 0 multiplicity 1
 C         1.396507        -0.169192        -0.292393
 C        -0.106809        -0.152576        -0.153279
 C        -1.295370        -0.253601        -0.016732
 C        -2.707404        -0.193893         0.177425
 O        -3.213911         0.020688         1.534499
 C        -3.394914         0.900853        -0.740761
 C        -4.570604         0.466563        -1.636455
 O        -3.847464         0.835993        -2.810580
 C        -2.732637         1.382736        -2.039680
 H         1.681879        -1.151252        -0.683426
 H         1.643422         0.709736        -0.889045
 H         1.771937        -0.112914         0.653744
 H        -3.174246        -1.141051        -0.307285
 H        -2.452945        -0.234748         2.062338
 H        -3.681662         1.640109         0.109443
 H        -4.747391        -0.584297        -1.761210
 H        -5.420172         1.111287        -1.392682
 H        -1.709767         0.907244        -2.296142
 H        -2.700941         2.537626        -2.178751
