19
Iteration:  4156charge 0 multiplicity 1
 C         1.428914         0.052789         0.534222
 C         0.113317        -0.170092        -0.000556
 C        -1.076542        -0.192226        -0.187883
 C        -2.561694        -0.348684        -0.389810
 O        -3.192046        -0.457104         0.872894
 C        -2.966814         0.946527        -0.954599
 C        -4.515915         1.171847        -0.974986
 O        -4.520724         0.885153        -2.357444
 C        -3.088782         1.001771        -2.540939
 H         1.404067         0.265170         1.610523
 H         2.147461        -0.779623         0.428395
 H         2.023034         0.894684         0.062700
 H        -2.643788        -1.345851        -1.002244
 H        -2.742336        -0.928275         1.560861
 H        -2.285655         1.826801        -0.571928
 H        -5.141312         0.439172        -0.633310
 H        -4.777977         2.223758        -0.808237
 H        -2.587692         0.217285        -3.184043
 H        -2.708047         1.940323        -3.068798
