19
Iteration:   666
 C         1.308413         0.277131         0.501586
 C         0.078354        -0.315921         0.131596
 C        -1.129144        -0.291164        -0.209079
 C        -2.577765        -0.185357        -0.256560
 O        -3.011525         0.082028         1.085721
 C        -2.961134         0.995150        -1.107539
 C        -4.445231         1.315992        -1.241244
 O        -4.496635         0.309752        -2.366959
 C        -3.161467         0.523312        -2.541585
 H         1.765364        -0.240992         1.301132
 H         2.051505         0.299549        -0.340523
 H         1.227838         1.271498         0.934238
 H        -3.205261        -0.981530        -0.541831
 H        -2.209725         0.610847         1.395205
 H        -2.276065         1.874516        -0.940824
 H        -5.078839         1.006148        -0.404373
 H        -4.690365         2.332982        -1.602776
 H        -2.683264        -0.413066        -2.834876
 H        -2.834295         1.270717        -3.316914
