19
Iteration:  3964
 C         1.461680        -0.212851        -0.254249
 C         0.033373        -0.219165        -0.068565
 C        -1.214235        -0.236100         0.014980
 C        -2.709412        -0.152643         0.122543
 O        -3.214468        -0.037149         1.475246
 C        -3.497744         1.013739        -0.658358
 C        -4.642296         0.479367        -1.617957
 O        -3.882102         0.826333        -2.886212
 C        -2.814681         1.393603        -2.046043
 H         1.763960        -1.254554        -0.710646
 H         1.844348         0.503589        -1.058344
 H         2.023041         0.244436         0.684799
 H        -3.047765        -1.091798        -0.229154
 H        -2.546274        -0.285894         2.128757
 H        -3.526091         1.898850        -0.125070
 H        -4.803889        -0.597869        -1.393522
 H        -5.588331         1.049200        -1.783607
 H        -1.925057         0.802969        -2.178553
 H        -2.757814         2.470652        -2.191006
