19
Iteration:   250charge 0 multiplicity 1
 C         1.283649        -0.138322        -0.394619
 C        -0.161608        -0.173670        -0.297672
 C        -1.280223        -0.074233         0.128840
 C        -2.750463         0.046517         0.361039
 O        -3.164482         0.585506         1.666692
 C        -3.356632         0.918166        -0.795977
 C        -4.524798         0.307137        -1.601889
 O        -3.862690         0.546913        -2.880796
 C        -2.660131         0.841416        -2.190496
 H         1.491966         0.716161        -0.997907
 H         1.754301        -0.025676         0.675832
 H         1.756142        -1.043984        -0.781415
 H        -3.176414        -0.990798         0.236785
 H        -2.819654        -0.080717         2.328520
 H        -3.576258         1.896603        -0.335580
 H        -4.602227        -0.794328        -1.342092
 H        -5.480347         0.950622        -1.656268
 H        -1.961152        -0.052500        -2.132837
 H        -2.254721         1.754727        -2.602491
