19
Iteration:   334
 C         1.179525         0.008120        -0.795271
 C        -0.103191        -0.043353         0.012321
 C        -1.243796         0.046016         0.511553
 C        -2.753623        -0.018862         0.377605
 O        -3.536967         0.244491         1.495592
 C        -3.005846         0.989290        -0.816214
 C        -4.425951         0.827373        -1.508166
 O        -3.922186         0.459779        -2.821743
 C        -2.569746         0.446239        -2.212101
 H         1.216221         0.170375        -1.984375
 H         1.772403         0.774870        -0.418739
 H         1.683331        -0.963896        -0.737053
 H        -2.893891        -1.008018        -0.086919
 H        -3.400788        -0.367758         2.198991
 H        -2.675439         2.072795        -0.578188
 H        -4.799879        -0.035403        -0.929638
 H        -5.143017         1.635128        -1.504881
 H        -2.244631        -0.593027        -2.345512
 H        -1.812368         1.151748        -2.738362
