19
Iteration:  1155
 C         0.601130        -0.887304        -1.128996
 C        -0.403175        -0.329610        -0.249006
 C        -1.316412         0.059055         0.422159
 C        -2.781751         0.098164         0.584566
 O        -3.290825         1.078646         1.539547
 C        -3.585256         0.225900        -0.719853
 C        -2.872103        -0.231389        -2.107813
 O        -3.304657         1.039767        -2.680565
 C        -3.591881         1.669853        -1.459596
 H         1.514532        -0.198703        -1.456200
 H         1.173036        -1.816601        -0.766675
 H         0.007264        -1.256356        -1.987469
 H        -3.068214        -0.933348         0.858374
 H        -2.494237         1.251743         2.025856
 H        -4.650207        -0.134077        -0.720505
 H        -1.824636        -0.302189        -2.018073
 H        -3.220272        -0.982015        -2.828148
 H        -2.714051         2.195831        -1.026716
 H        -4.494961         2.228707        -1.423767
