19
Iteration:  3251
 C         1.121169        -0.157595        -0.686663
 C        -0.157926         0.067075         0.000498
 C        -1.361483        -0.042288         0.230505
 C        -2.789286        -0.176132         0.183904
 O        -3.361886        -0.108910         1.505949
 C        -3.289237         0.936263        -0.711090
 C        -4.392326         0.550639        -1.529962
 O        -3.758551         0.809868        -2.765344
 C        -2.493694         1.031819        -2.086738
 H         1.019620        -1.143922        -0.961492
 H         1.506255         0.608816        -1.398732
 H         1.969005        -0.207507         0.093669
 H        -3.229411        -1.154293        -0.177766
 H        -2.705456         0.366918         2.022148
 H        -3.292780         1.964042        -0.205014
 H        -4.493171        -0.546924        -1.441797
 H        -5.327563         1.145271        -1.429137
 H        -1.706959         0.363833        -2.298331
 H        -2.169230         2.029888        -2.370804
