19
Iteration:  1991charge 0 multiplicity 1
 C         1.131980        -0.110222        -0.746138
 C        -0.141481        -0.037588         0.030464
 C        -1.155302        -0.049451         0.667072
 C        -2.594934         0.010316         0.317647
 O        -3.623152         0.336256         1.310949
 C        -2.886609         0.863211        -0.858563
 C        -4.356708         0.792570        -1.300748
 O        -4.067204         0.534840        -2.723133
 C        -2.589111         0.465062        -2.410361
 H         1.779121        -0.829436        -0.160966
 H         1.016527        -0.229157        -1.761155
 H         1.726220         0.780564        -0.616673
 H        -2.731848        -1.113521        -0.081386
 H        -3.588841         1.273991         1.456279
 H        -2.496509         1.855085        -0.617578
 H        -4.925564        -0.072411        -0.741066
 H        -5.040095         1.669786        -1.205512
 H        -2.267110        -0.593122        -2.605854
 H        -2.037806         1.271120        -2.970000
