19
Iteration:  4370charge 0 multiplicity 1
 C         1.549403        -0.051089         0.375094
 C         0.146536        -0.074201         0.092857
 C        -1.043137        -0.091819        -0.242738
 C        -2.517174        -0.272564        -0.252819
 O        -3.163585        -0.544003         1.037425
 C        -3.211028         0.843083        -0.861179
 C        -4.662873         0.778886        -1.211088
 O        -4.440835         1.289323        -2.540364
 C        -3.039206         1.050765        -2.396467
 H         2.086626         0.623884        -0.344581
 H         1.683653         0.334286         1.413937
 H         2.013580        -1.003771         0.423964
 H        -2.700731        -1.210655        -0.969608
 H        -2.455011        -0.650691         1.712354
 H        -3.136097         1.737813        -0.180193
 H        -5.047917        -0.172456        -1.339101
 H        -5.254497         1.311462        -0.605620
 H        -2.617593         0.236431        -2.893864
 H        -2.293815         1.834040        -2.748473
