19
Iteration:  3188
 C         1.316058        -0.050458        -0.392245
 C        -0.071754        -0.273532        -0.113094
 C        -1.283216        -0.266054         0.065165
 C        -2.723790        -0.171863         0.196949
 O        -3.233625         0.045765         1.583917
 C        -3.375817         0.956161        -0.763735
 C        -4.584139         0.666669        -1.613276
 O        -3.768126         0.576640        -2.809260
 C        -2.749538         1.305951        -2.142752
 H         1.680476        -0.572789        -1.310265
 H         1.596675         1.042397        -0.344239
 H         1.839240        -0.634616         0.504220
 H        -3.101166        -1.203439        -0.139154
 H        -2.563430        -0.019738         2.252858
 H        -3.425825         1.856559        -0.046839
 H        -5.150789        -0.272675        -1.451223
 H        -5.322940         1.503385        -1.619570
 H        -1.707837         1.054437        -2.315594
 H        -2.854284         2.430789        -2.290381
