19
Iteration:  3147
 C         1.314001        -0.161221        -0.043560
 C        -0.094569        -0.105550        -0.027564
 C        -1.285468        -0.280177        -0.284978
 C        -2.706947        -0.118079         0.019412
 O        -3.039135         0.064287         1.411198
 C        -3.371178         1.088890        -0.720241
 C        -4.655737         0.600166        -1.462957
 O        -3.896521         0.557856        -2.721319
 C        -2.745724         1.250829        -2.132953
 H         1.687943        -0.211797        -1.101108
 H         1.867907         0.694649         0.143467
 H         1.668372        -0.925142         0.500800
 H        -3.287588        -1.010952        -0.343912
 H        -2.398322        -0.540214         1.862547
 H        -3.569333         1.955855        -0.138976
 H        -5.136357        -0.286784        -1.032005
 H        -5.495021         1.281822        -1.609952
 H        -1.797409         0.655647        -2.463884
 H        -2.724250         2.288622        -2.543956
