19
Iteration:  4490charge 0 multiplicity 1
 C         1.468482        -0.042204        -0.213379
 C        -0.048406        -0.031924        -0.105525
 C        -1.248570        -0.106091        -0.028477
 C        -2.688781        -0.162092        -0.078690
 O        -3.318878        -0.727271         1.176482
 C        -3.428326         1.102480        -0.592065
 C        -4.581952         0.742862        -1.400679
 O        -3.869544         0.742335        -2.702063
 C        -2.744839         1.520407        -1.969278
 H         1.737508        -0.658197        -1.124075
 H         1.928633         0.978944        -0.133196
 H         1.863713        -0.499474         0.670029
 H        -2.948212        -0.961871        -0.814224
 H        -2.591915        -0.791795         1.794374
 H        -3.395283         1.961161         0.173511
 H        -4.911831        -0.455729        -1.297316
 H        -5.497404         1.415115        -1.296579
 H        -1.785382         1.052261        -2.140957
 H        -2.827486         2.577551        -2.293237
