19
Iteration:  4107charge 0 multiplicity 1
 C         1.553968        -0.115263         0.297545
 C         0.126042        -0.176681         0.208924
 C        -1.052046        -0.239399        -0.024003
 C        -2.582550        -0.171900        -0.328541
 O        -3.157734        -0.445359         1.000254
 C        -3.157627         1.126861        -0.886384
 C        -4.673846         1.016836        -1.131042
 O        -4.421157         0.733304        -2.576244
 C        -3.037012         1.220646        -2.466145
 H         1.948169        -0.401674         1.337669
 H         2.117387        -0.720988        -0.455299
 H         1.918176         0.907691         0.132540
 H        -2.813281        -1.098487        -0.966683
 H        -2.539269        -0.940182         1.589818
 H        -2.769830         1.985180        -0.479173
 H        -5.140019         0.114655        -0.601232
 H        -5.100467         2.023111        -1.122350
 H        -2.398089         0.519256        -2.995555
 H        -2.806518         2.215514        -2.797715
