19
Iteration:  4146
 C         1.534408         0.028534         0.526461
 C         0.132543        -0.161335         0.015571
 C        -1.113201        -0.213662        -0.206881
 C        -2.503503        -0.336880        -0.362863
 O        -3.254637        -0.432206         0.896110
 C        -3.007304         0.960747        -0.998825
 C        -4.512645         1.135957        -0.998532
 O        -4.511574         0.857581        -2.441738
 C        -3.076057         1.026476        -2.462976
 H         1.480172         0.119641         1.580066
 H         2.151267        -0.830991         0.323082
 H         1.923001         0.978349         0.046563
 H        -2.854219        -1.145835        -1.074070
 H        -2.573897        -0.875786         1.408750
 H        -2.560914         1.803599        -0.291681
 H        -5.111716         0.574060        -0.297694
 H        -4.818568         2.174142        -0.818699
 H        -2.596073         0.166262        -3.006316
 H        -2.953870         2.095758        -2.822424
