19
Iteration:   608
 C         1.584650        -0.194384         0.768285
 C         0.342419         0.109525         0.281519
 C        -0.844236         0.075363        -0.027644
 C        -2.361685        -0.083036        -0.280726
 O        -3.044719         0.222587         0.872695
 C        -2.998374         0.861150        -1.303699
 C        -4.609586         1.056372        -1.078734
 O        -4.875479         0.411776        -2.458587
 C        -3.404261         0.512591        -2.759297
 H         1.685668        -1.324310         1.209391
 H         2.339274         0.007295         0.109921
 H         1.733466         0.581412         1.536158
 H        -2.466369        -1.105743        -0.558426
 H        -3.128579        -0.484721         1.481658
 H        -2.618095         1.945980        -1.327334
 H        -4.958580         0.526459        -0.206144
 H        -4.920893         2.107214        -1.066610
 H        -3.069398        -0.508934        -2.941337
 H        -3.101886         1.215678        -3.596195
