19
Iteration:  3791charge 0 multiplicity 1
 C         1.341758        -0.129959        -0.362400
 C        -0.030483        -0.086269         0.007531
 C        -1.237865        -0.007014         0.243269
 C        -2.667568        -0.233727         0.175985
 O        -3.377020        -0.073624         1.371895
 C        -3.193523         0.808688        -0.799111
 C        -4.570593         0.574362        -1.534352
 O        -3.989897         1.132736        -2.761977
 C        -2.715957         0.900114        -2.199990
 H         1.489631         0.366781        -1.397042
 H         2.017372         0.495443         0.251621
 H         1.850219        -1.185405        -0.274158
 H        -2.855676        -1.234983        -0.158552
 H        -2.651118        -0.094008         2.057315
 H        -3.259343         1.736496        -0.197078
 H        -4.811162        -0.542956        -1.568557
 H        -5.522032         1.098188        -1.159466
 H        -2.206317         0.007180        -2.576688
 H        -2.007197         1.665112        -2.624973
