19
Iteration:   346
 C         1.149861         0.000679        -0.684511
 C        -0.147642         0.027111        -0.149560
 C        -1.219525         0.014281         0.431511
 C        -2.679403         0.016978         0.298763
 O        -3.570789         0.222716         1.522014
 C        -3.031069         0.985649        -0.873163
 C        -4.408902         0.838237        -1.427084
 O        -3.912546         0.492916        -2.747859
 C        -2.526365         0.373879        -2.209068
 H         0.961173         0.170083        -1.847095
 H         1.765919         0.813266        -0.279180
 H         1.732157        -0.874524        -0.374303
 H        -3.045979        -0.967007         0.008510
 H        -3.338588        -0.592836         2.040951
 H        -2.626262         2.031077        -0.644714
 H        -5.132204         0.071682        -1.073146
 H        -5.002064         1.769898        -1.514518
 H        -2.159489        -0.620046        -1.885549
 H        -1.778847         0.831165        -2.969097
