19
Iteration:  2515charge 0 multiplicity 1
 C         1.357163        -0.026554        -0.384901
 C         0.055847        -0.107589         0.254837
 C        -1.149824        -0.139668         0.335891
 C        -2.562861        -0.201359         0.072079
 O        -3.388160        -0.003777         1.254493
 C        -3.158739         0.909149        -0.833216
 C        -4.520192         0.568797        -1.373386
 O        -4.206820         0.861359        -2.770901
 C        -2.736777         1.026565        -2.346399
 H         1.362089        -0.598012        -1.290212
 H         1.476896         1.157232        -0.470788
 H         2.184195        -0.288475         0.232881
 H        -2.961993        -1.170061        -0.285369
 H        -3.020652        -0.646627         1.931314
 H        -2.911074         1.879733        -0.395539
 H        -4.793179        -0.531482        -1.118540
 H        -5.347619         1.248690        -1.213303
 H        -2.251111         0.050637        -2.628440
 H        -2.349125         1.988470        -2.715762
