19
Iteration:  4811charge 0 multiplicity 1
 C         1.685667        -0.036136         0.509011
 C         0.201466        -0.070027         0.179637
 C        -0.982025        -0.246550        -0.090555
 C        -2.440254        -0.363938        -0.336067
 O        -3.235001        -0.691493         0.807721
 C        -3.055719         1.093740        -0.957824
 C        -4.646042         1.112584        -1.028631
 O        -4.630255         1.046374        -2.484884
 C        -3.180799         1.038620        -2.505904
 H         1.896847         0.468735         1.437907
 H         2.014410        -1.048133         0.661385
 H         2.330850         0.519623        -0.243177
 H        -2.750798        -1.030386        -1.205896
 H        -3.234415         0.119605         1.386116
 H        -2.531895         1.929059        -0.311824
 H        -5.062833         0.189357        -0.688416
 H        -5.147448         2.005204        -0.877441
 H        -2.698047         0.135935        -3.001669
 H        -2.685201         1.835106        -3.092400
