19
Iteration:  2914
 C         1.305619         0.304598         0.745890
 C         0.122875        -0.107854         0.008743
 C        -0.975034        -0.615443        -0.163249
 C        -2.459179        -0.469219        -0.370136
 O        -2.919059        -0.224934         1.028584
 C        -2.959185         0.721696        -1.116947
 C        -4.409292         1.343675        -1.051161
 O        -4.690024         1.153866        -2.496294
 C        -3.349940         0.576056        -2.657631
 H         1.079563         1.426110         1.144016
 H         1.570629        -0.268216         1.632297
 H         2.119333         0.139540         0.124518
 H        -2.918827        -1.357088        -0.719306
 H        -2.055887        -0.187087         1.449688
 H        -2.074532         1.477428        -0.955607
 H        -5.120998         0.771210        -0.433760
 H        -4.640563         2.400399        -0.656699
 H        -3.355254        -0.430721        -3.095224
 H        -2.886865         1.272807        -3.291582
