19
Iteration:  2164charge 0 multiplicity 1
 C         1.562315        -0.149320         0.465148
 C         0.175743        -0.345255         0.210045
 C        -1.026842        -0.269991        -0.081440
 C        -2.494834        -0.040383        -0.013239
 O        -2.941034         0.532603         1.245786
 C        -3.148924         0.852149        -1.123518
 C        -4.681206         0.678922        -1.318936
 O        -4.582562         0.659084        -2.701224
 C        -3.179152         0.839478        -2.708938
 H         1.682476         0.411303         1.323689
 H         2.281038        -1.032236         0.570317
 H         1.827589         0.527555        -0.367455
 H        -2.939179        -1.092191        -0.129721
 H        -2.684852        -0.024739         2.033637
 H        -2.873021         1.831418        -0.716554
 H        -5.117326        -0.310270        -1.010464
 H        -5.439270         1.265638        -0.798342
 H        -2.682924        -0.042190        -3.152493
 H        -2.875515         1.778425        -3.149597
