19
Iteration:   328
 C         1.186802        -0.010946        -0.822026
 C        -0.096649        -0.076561         0.079084
 C        -1.236887         0.049947         0.532837
 C        -2.733061        -0.021795         0.390702
 O        -3.517532         0.288687         1.464162
 C        -3.029486         0.949811        -0.803761
 C        -4.445552         0.811801        -1.510758
 O        -3.886940         0.455552        -2.830565
 C        -2.611760         0.489219        -2.239429
 H         0.775696         0.250934        -1.759308
 H         2.059009         0.771389        -0.501830
 H         1.771315        -0.952427        -0.895134
 H        -2.896240        -1.051633        -0.029711
 H        -3.296893        -0.294937         2.226969
 H        -2.782596         1.913505        -0.480615
 H        -4.993710        -0.098853        -1.148869
 H        -5.285688         1.580695        -1.435850
 H        -2.036368        -0.429977        -2.584778
 H        -1.956654         1.268563        -2.554901
