19
Iteration:   470
 C         1.494809         0.025344         0.319622
 C         0.079626        -0.178749         0.069426
 C        -1.119453        -0.328074        -0.073296
 C        -2.540182        -0.094745         0.050560
 O        -3.035197         0.488796         1.226338
 C        -3.101265         0.870821        -1.072585
 C        -4.613630         0.743754        -1.281619
 O        -4.481586         0.625786        -2.676741
 C        -3.031502         0.540975        -2.563999
 H         2.190382        -0.618232        -0.187278
 H         1.757920         1.213284         0.144298
 H         1.596575        -0.182173         1.429052
 H        -3.150070        -1.013576         0.005255
 H        -2.310269         1.146478         1.476321
 H        -2.917103         1.809536        -0.662698
 H        -5.005639        -0.185659        -0.833579
 H        -5.246781         1.598772        -0.883373
 H        -2.643689        -0.526330        -2.738951
 H        -2.739337         1.130973        -3.452212
