19
Iteration:   510charge 0 multiplicity 1
 C         1.591212        -0.250056         0.648774
 C         0.226682         0.037973         0.101386
 C        -0.961617         0.096395        -0.199299
 C        -2.424060        -0.031665        -0.057840
 O        -2.902499         0.330573         1.271274
 C        -3.183384         0.777800        -1.156395
 C        -4.713151         0.772565        -1.312976
 O        -4.714139         0.670543        -2.672185
 C        -3.233499         0.443961        -2.690102
 H         2.048579        -1.210783         0.309203
 H         2.291068         0.486214         0.520217
 H         1.435714        -0.227688         1.711918
 H        -2.533440        -1.134214        -0.049611
 H        -2.862292         1.260346         1.477614
 H        -2.743684         1.860619        -1.109126
 H        -5.181885        -0.110693        -0.834051
 H        -5.291762         1.633070        -0.960138
 H        -3.018727        -0.596168        -2.780678
 H        -2.620660         1.024160        -3.409008
