19
Iteration:  2293charge 0 multiplicity 1
 C         1.642997        -0.194629         0.622483
 C         0.194032         0.059468         0.310514
 C        -0.974210         0.016852        -0.089784
 C        -2.382401        -0.081686        -0.211695
 O        -3.032038        -0.228406         1.126025
 C        -3.100348         0.967595        -1.190189
 C        -4.673475         1.299262        -1.241710
 O        -4.715957         0.731236        -2.615931
 C        -3.324095         0.477161        -2.650470
 H         2.144341         0.772443         0.504142
 H         1.864301        -0.659896         1.691116
 H         2.091081        -0.939525        -0.152109
 H        -2.521275        -0.927563        -0.803474
 H        -2.468452        -0.651316         1.805991
 H        -2.417281         1.807499        -1.128466
 H        -5.318102         0.683495        -0.580666
 H        -4.816026         2.395299        -1.279225
 H        -3.160044        -0.652214        -2.787713
 H        -2.747646         0.760012        -3.549715
