19
Iteration:  3439
 C         1.468060         0.023560         0.474216
 C         0.090386        -0.165335         0.036007
 C        -1.091810        -0.333854        -0.163487
 C        -2.622074        -0.208158        -0.144391
 O        -2.984895        -0.061999         1.236414
 C        -3.084934         0.987057        -1.013360
 C        -4.611235         1.078436        -1.207497
 O        -4.486756         0.900049        -2.675303
 C        -3.060690         0.658432        -2.541048
 H         1.570302        -0.327473         1.408497
 H         2.245243        -0.437241        -0.147645
 H         1.892331         1.077237         0.382712
 H        -3.150439        -1.030110        -0.529355
 H        -3.047738        -0.940463         1.699002
 H        -2.456530         1.897928        -0.833776
 H        -5.069056         0.150811        -0.888514
 H        -5.124689         1.994869        -0.831564
 H        -2.687981        -0.362031        -2.882946
 H        -2.394206         1.247965        -3.170955
