19
Iteration:  1317charge 0 multiplicity 1
 C         1.309012        -0.341279        -0.133916
 C        -0.204390        -0.377616        -0.245820
 C        -1.401823        -0.404715        -0.252337
 C        -2.811501        -0.133392         0.322452
 O        -2.686437         0.706655         1.469183
 C        -3.795429         0.700733        -0.691676
 C        -4.221125        -0.068685        -1.984528
 O        -3.515792         0.854304        -2.847343
 C        -3.294123         1.758911        -1.695586
 H         1.628290         0.534223        -0.527862
 H         1.680799        -0.383756         0.935610
 H         1.638869        -1.193304        -0.662346
 H        -3.082221        -1.200772         0.526218
 H        -2.151748         0.299769         2.207018
 H        -4.647866         0.826541        -0.034309
 H        -4.025805        -1.124167        -2.320691
 H        -5.275086         0.210580        -2.100987
 H        -2.203610         1.976047        -1.522538
 H        -3.975889         2.649468        -1.806628
