19
Iteration:   497
 C         1.591709        -0.154508         0.615743
 C         0.223140        -0.006513        -0.044875
 C        -1.019086         0.000926        -0.066312
 C        -2.546546        -0.111783        -0.037606
 O        -2.904843         0.385882         1.282381
 C        -3.184159         0.800004        -1.156853
 C        -4.705309         0.767268        -1.140444
 O        -4.589119         0.655032        -2.771287
 C        -3.183942         0.456614        -2.686516
 H         2.085274        -1.107636         0.236652
 H         2.202044         0.634212         0.432644
 H         1.451417        -0.376889         1.667368
 H        -3.031457        -1.074395        -0.133915
 H        -2.758937         1.367205         1.109367
 H        -2.887874         1.850803        -0.855073
 H        -5.174768        -0.146080        -0.721212
 H        -5.168257         1.671782        -0.821042
 H        -2.859966        -0.509376        -3.027972
 H        -2.775943         1.175130        -3.396199
