19
Iteration:   533
 C         1.603687        -0.352902         0.711542
 C         0.183627         0.060791         0.360399
 C        -0.895553         0.280227        -0.215364
 C        -2.357215         0.091292        -0.232026
 O        -2.832664         0.217798         1.116541
 C        -3.235938         0.908130        -1.210970
 C        -4.753988         0.780155        -1.147227
 O        -4.706875         0.678381        -2.721549
 C        -3.336341         0.297307        -2.645503
 H         1.781003        -1.359848         0.316154
 H         2.326436         0.269052         0.275983
 H         1.784082        -0.286233         1.766321
 H        -2.461171        -1.008261        -0.437559
 H        -2.605278         1.018786         1.656252
 H        -3.053180         2.042265        -1.410984
 H        -5.140651        -0.160096        -0.739703
 H        -5.355236         1.604935        -0.715978
 H        -3.118271        -0.757473        -2.507978
 H        -2.739698         0.689401        -3.509997
