19
Iteration:  1231
 C         1.027491        -0.617259        -0.678203
 C        -0.388315        -0.523621        -0.389817
 C        -1.429545        -0.200073         0.178268
 C        -2.774619        -0.032960         0.537080
 O        -2.994076         1.023441         1.521645
 C        -3.727106         0.349238        -0.692095
 C        -3.545753        -0.225446        -2.147253
 O        -3.326901         1.058384        -2.733317
 C        -3.454134         1.736252        -1.467779
 H         1.607871         0.331166        -0.848479
 H         1.479372        -1.093270         0.259190
 H         1.368711        -1.253433        -1.497981
 H        -3.213190        -0.926063         0.926743
 H        -2.663320         1.801683         0.998850
 H        -4.829614         0.269791        -0.530591
 H        -2.598503        -0.827800        -2.335082
 H        -4.362473        -0.887848        -2.582054
 H        -2.510305         2.262531        -1.204913
 H        -4.325959         2.369520        -1.392497
