19
Iteration:  1610charge 0 multiplicity 1
 C         1.373210         0.314634         0.582128
 C        -0.026187        -0.099714         0.172690
 C        -1.107914        -0.631390        -0.153863
 C        -2.549917        -0.283894        -0.189219
 O        -3.047699        -0.002409         1.067079
 C        -2.866615         0.873868        -1.203471
 C        -4.342146         1.392691        -1.152778
 O        -4.593622         0.609720        -2.405555
 C        -3.209914         0.519187        -2.667948
 H         1.853175         0.293532        -0.454292
 H         1.236077         1.280680         0.870539
 H         1.962070        -0.359905         1.191338
 H        -3.120837        -1.255397        -0.679179
 H        -2.336594         0.338220         1.663736
 H        -2.143077         1.680173        -0.978980
 H        -5.059510         1.137443        -0.317150
 H        -4.412338         2.501448        -1.495130
 H        -2.851588        -0.417109        -3.130963
 H        -2.835368         1.195869        -3.427984
