19
Iteration:  2965
 C         1.488225         0.031203         0.597130
 C         0.094894        -0.044460         0.226937
 C        -1.022741        -0.174938        -0.243989
 C        -2.466991        -0.224194        -0.270542
 O        -3.024013        -0.435203         0.974120
 C        -2.998583         0.947042        -1.162568
 C        -4.466684         1.226373        -1.076810
 O        -4.662659         0.993965        -2.510465
 C        -3.256448         0.537756        -2.538022
 H         1.826513         1.048416         0.567373
 H         1.557513        -0.359815         1.653271
 H         2.189181        -0.619849        -0.025019
 H        -2.810170        -1.144831        -0.812374
 H        -2.829590         0.376661         1.520592
 H        -2.354344         1.833104        -1.119417
 H        -5.043364         0.655988        -0.340837
 H        -4.777241         2.220644        -0.821713
 H        -3.265391        -0.547735        -2.600257
 H        -2.686577         1.160118        -3.361850
