19
Iteration:   147charge 0 multiplicity 1
 C         1.615510        -0.437244         0.280817
 C         0.088119        -0.402025         0.054118
 C        -1.074645        -0.009301        -0.082158
 C        -2.598311         0.114409         0.157750
 O        -2.949936         0.629489         1.401071
 C        -3.405711         0.837732        -0.975676
 C        -4.540773         0.033156        -1.545399
 O        -4.428045         0.705114        -2.801612
 C        -3.120332         1.245548        -2.485571
 H         1.728633         0.698231         0.643324
 H         1.880341        -0.924144         1.121457
 H         2.231313        -0.488471        -0.619182
 H        -2.943900        -0.934565         0.079706
 H        -2.178027         1.067951         1.825505
 H        -3.686251         1.790544        -0.501278
 H        -4.327912        -1.058088        -1.680677
 H        -5.521230         0.018864        -1.060699
 H        -2.450547         0.714931        -3.110549
 H        -2.966294         2.343429        -2.665222
