19
Iteration:  2947
 C         1.350321         0.120438         0.690599
 C         0.037977        -0.073896         0.187869
 C        -1.011808        -0.214799        -0.397942
 C        -2.498898        -0.304599        -0.355030
 O        -2.998213        -0.423601         1.133066
 C        -2.917548         0.880402        -1.111482
 C        -4.403786         1.313035        -1.021690
 O        -4.614098         1.044267        -2.447385
 C        -3.307828         0.483929        -2.726579
 H         1.732337         1.263833         0.579582
 H         1.556458        -0.347601         1.640658
 H         2.000073        -0.197512        -0.072477
 H        -2.803125        -1.206232        -0.793626
 H        -2.441254         0.274776         1.594871
 H        -2.121642         1.704205        -0.885912
 H        -5.024327         0.520478        -0.536615
 H        -4.766310         2.368638        -0.763938
 H        -3.203850        -0.631684        -2.918859
 H        -2.833609         1.014525        -3.533880
