19
Iteration:  1486
 C         1.428425         0.034180        -0.344088
 C         0.030150        -0.063839         0.092171
 C        -1.190205        -0.207621         0.357292
 C        -2.646631        -0.162863         0.155494
 O        -3.421578        -0.080039         1.364023
 C        -3.111956         0.883237        -0.890061
 C        -4.601815         0.687659        -1.428355
 O        -4.109704         0.990850        -2.766538
 C        -2.688295         0.735817        -2.329387
 H         1.328956         0.366429        -1.400348
 H         2.011063         0.720276         0.110342
 H         1.781712        -0.975564        -0.256652
 H        -2.989375        -1.113530        -0.416753
 H        -3.170456         0.717907         1.900203
 H        -2.890756         1.931466        -0.594595
 H        -4.940970        -0.357948        -1.224060
 H        -5.504789         1.277329        -1.221267
 H        -2.410520        -0.333655        -2.568033
 H        -2.063660         1.475441        -2.757783
