19
Iteration:  4278charge 0 multiplicity 1
 C         1.558139         0.092023         0.607238
 C         0.208443        -0.024788         0.171722
 C        -0.997212        -0.327293        -0.076649
 C        -2.449916        -0.381188        -0.421509
 O        -3.199511        -0.559925         0.780883
 C        -3.010927         0.888239        -1.078386
 C        -4.572062         1.029896        -0.938632
 O        -4.577517         1.351483        -2.384705
 C        -3.255550         0.787771        -2.601947
 H         1.894763         1.098343         0.690712
 H         1.748516        -0.503033         1.476617
 H         2.388573        -0.358520        -0.112948
 H        -2.622533        -1.241316        -1.086696
 H        -2.793120        -0.120321         1.526233
 H        -2.507175         1.927583        -0.900233
 H        -5.020274         0.113331        -0.802831
 H        -5.030896         1.711344        -0.195295
 H        -3.359621        -0.220883        -3.001198
 H        -2.759191         1.310744        -3.409040
