19
Iteration:    98charge 0 multiplicity 1
 C         1.521456        -0.505226         0.451066
 C         0.177104        -0.038730         0.122545
 C        -1.019278         0.127257        -0.133160
 C        -2.542545        -0.000975        -0.010428
 O        -2.783683         0.533315         1.420104
 C        -3.396854         0.766940        -1.017405
 C        -4.662299         0.051872        -1.528277
 O        -4.530460         0.816048        -2.758788
 C        -3.147066         1.094258        -2.540868
 H         2.048108        -0.154104         1.251203
 H         1.296757        -1.666305         0.675460
 H         2.087053        -0.410289        -0.489311
 H        -2.832092        -1.052998         0.021244
 H        -2.336172         1.381079         1.396858
 H        -3.577043         1.715836        -0.473292
 H        -4.541134        -1.012523        -1.605222
 H        -5.563581         0.455529        -1.022901
 H        -2.497713         0.336919        -3.014609
 H        -2.934130         2.053289        -2.969099
