19
Iteration:  3219charge 0 multiplicity 1
 C         1.317357        -0.066051        -0.586444
 C        -0.076608        -0.219582        -0.178759
 C        -1.252387        -0.155405         0.236376
 C        -2.773407        -0.136662         0.249312
 O        -3.376274        -0.013448         1.574202
 C        -3.444941         0.938371        -0.731382
 C        -4.544375         0.624049        -1.641538
 O        -3.723155         0.683998        -2.805599
 C        -2.598862         1.160780        -2.051919
 H         1.682352        -0.739919        -1.300050
 H         1.713380         0.865488        -1.053050
 H         1.912916        -0.326620         0.385011
 H        -3.052047        -1.051703        -0.096463
 H        -2.710383         0.185338         2.288415
 H        -3.577648         1.856865        -0.075621
 H        -5.099642        -0.349387        -1.577008
 H        -5.324114         1.426735        -1.588373
 H        -1.740412         0.602208        -2.119119
 H        -2.443171         2.205774        -2.226513
