19
Iteration:   515charge 0 multiplicity 1
 C         1.536906        -0.270102         0.653440
 C         0.242180         0.034633         0.161788
 C        -0.909127         0.122663        -0.224648
 C        -2.371448         0.037945        -0.083101
 O        -2.908894         0.292469         1.262926
 C        -3.160763         0.804628        -1.155125
 C        -4.727347         0.756851        -1.317565
 O        -4.735780         0.677631        -2.681991
 C        -3.270052         0.408470        -2.653095
 H         1.885378        -1.224004         0.293892
 H         2.385304         0.595068         0.405727
 H         1.519854        -0.281615         1.794306
 H        -2.532607        -1.065065        -0.155175
 H        -2.769025         1.280691         1.398770
 H        -2.726742         1.756652        -1.080823
 H        -5.216801        -0.112251        -0.838944
 H        -5.323072         1.662656        -1.007610
 H        -3.093564        -0.713663        -2.916960
 H        -2.615586         1.005383        -3.302375
