19
Iteration:  1313
 C         1.260142        -0.368564        -0.133207
 C        -0.223493        -0.351069        -0.228805
 C        -1.418473        -0.378816        -0.242668
 C        -2.786436        -0.141278         0.318010
 O        -2.661407         0.727692         1.461057
 C        -3.792168         0.643168        -0.690602
 C        -4.217481        -0.070425        -2.008392
 O        -3.506940         0.859270        -2.845933
 C        -3.284936         1.751472        -1.666506
 H         1.566090         0.631393        -0.646370
 H         1.643551        -0.436687         0.901999
 H         1.704544        -1.221234        -0.734400
 H        -3.182623        -1.186205         0.559191
 H        -2.112653         0.300718         2.108454
 H        -4.655115         0.783218        -0.054662
 H        -3.949535        -1.064417        -2.220129
 H        -5.249298         0.179253        -2.187890
 H        -2.271454         2.134071        -1.504251
 H        -3.927621         2.651248        -1.770303
