19
Iteration:  1611
 C         1.390499         0.314481         0.591415
 C        -0.034875        -0.102093         0.169409
 C        -1.100310        -0.635164        -0.148586
 C        -2.544902        -0.290780        -0.191269
 O        -3.048564         0.005315         1.064499
 C        -2.864455         0.872017        -1.213853
 C        -4.346213         1.391302        -1.150450
 O        -4.600381         0.608502        -2.398623
 C        -3.215598         0.521476        -2.673979
 H         1.851122         0.255762        -0.389140
 H         1.259901         1.301512         0.895790
 H         1.970642        -0.364622         1.181995
 H        -3.117032        -1.220525        -0.685752
 H        -2.343166         0.349370         1.626956
 H        -2.165126         1.695444        -0.959680
 H        -5.073744         1.097107        -0.342376
 H        -4.408753         2.501569        -1.498738
 H        -2.868697        -0.384801        -3.136089
 H        -2.854477         1.229404        -3.462300
