19
Iteration:  3409charge 0 multiplicity 1
 C         1.351880         0.098453         0.206638
 C        -0.000800        -0.237576         0.128717
 C        -1.129721        -0.377514        -0.197362
 C        -2.588478        -0.242643        -0.084758
 O        -2.995403         0.015575         1.288890
 C        -3.193263         0.886895        -0.893303
 C        -4.644081         1.009982        -1.286252
 O        -4.311190         0.977064        -2.751247
 C        -2.898619         0.680273        -2.398004
 H         1.783166        -0.484030         1.113921
 H         1.900902        -0.318390        -0.660088
 H         1.407185         1.207925         0.346981
 H        -3.145655        -1.293373        -0.301626
 H        -2.638063        -0.592469         1.925227
 H        -2.741297         1.918614        -0.543138
 H        -5.255776         0.068059        -1.263785
 H        -5.141445         1.947567        -1.007083
 H        -2.642960        -0.364953        -2.622856
 H        -2.095463         1.377270        -2.829461
