19
Iteration:  1742charge 0 multiplicity 1
 C         1.338505        -0.570242         0.682848
 C         0.198790         0.142618         0.205285
 C        -0.945378         0.522497        -0.102409
 C        -2.297043         0.077767        -0.200003
 O        -2.879806         0.098780         1.129906
 C        -3.142690         0.894237        -1.254441
 C        -4.671489         0.816030        -1.110668
 O        -4.670978         0.697509        -2.631701
 C        -3.275289         0.392591        -2.722320
 H         1.715147        -1.241061        -0.205437
 H         2.229122         0.077531         0.656869
 H         1.190486        -0.935023         1.711210
 H        -2.357193        -0.887853        -0.535250
 H        -2.198485         0.463741         1.749503
 H        -2.620609         1.854751        -1.199717
 H        -5.215990        -0.019497        -0.694843
 H        -5.221805         1.628672        -0.655157
 H        -3.140519        -0.760845        -2.783965
 H        -2.749367         0.949376        -3.528618
