19
Iteration:  4460charge 0 multiplicity 1
 C         1.438610        -0.014389        -0.059190
 C         0.008012        -0.165611        -0.024889
 C        -1.176009        -0.126357        -0.042026
 C        -2.583449        -0.280039        -0.198802
 O        -3.228100        -0.477724         1.133803
 C        -3.345257         0.919571        -0.673033
 C        -4.658945         0.760637        -1.357653
 O        -4.012137         0.815377        -2.699004
 C        -2.869416         1.487905        -1.986628
 H         1.830563        -0.167767        -1.111528
 H         1.693691         1.062582         0.164800
 H         1.818552        -0.705888         0.644604
 H        -2.789873        -1.144616        -0.786547
 H        -2.748302        -1.231583         1.568608
 H        -3.238883         1.615490         0.135827
 H        -5.166144        -0.210479        -1.364166
 H        -5.365342         1.504056        -1.186183
 H        -1.848678         1.360060        -2.365027
 H        -2.814798         2.679116        -2.079767
