19
Iteration:  2596
 C         1.413213        -0.209161        -0.272069
 C        -0.036094         0.096635        -0.158373
 C        -1.270905        -0.006055        -0.010378
 C        -2.769991        -0.102610         0.121684
 O        -3.183656        -0.107162         1.458289
 C        -3.444438         1.070581        -0.665320
 C        -4.594425         0.619342        -1.543050
 O        -3.814583         0.482259        -2.801074
 C        -2.765457         1.216346        -2.039885
 H         1.448330        -1.356890        -0.515090
 H         1.843289         0.197186        -1.207482
 H         1.986481        -0.033958         0.647658
 H        -3.151939        -0.976353        -0.443652
 H        -2.849889        -0.895680         1.920074
 H        -3.490954         2.045871        -0.113017
 H        -5.076970        -0.294077        -1.303367
 H        -5.404867         1.361005        -1.644280
 H        -1.937464         0.661752        -2.208582
 H        -2.480479         2.226079        -2.358992
