19
Iteration:  3722charge 0 multiplicity 1
 C         1.540289        -0.112306         0.076970
 C         0.028450        -0.011762         0.041351
 C        -1.153865        -0.186030        -0.002731
 C        -2.650892        -0.166725        -0.013574
 O        -3.193126        -0.133130         1.281719
 C        -3.185633         0.979008        -0.857824
 C        -4.650812         0.864594        -1.336951
 O        -4.252137         0.910662        -2.746241
 C        -2.875740         0.797136        -2.357318
 H         1.928943         0.864110        -0.442482
 H         1.899148        -0.100218         1.143532
 H         1.830381        -1.056601        -0.291722
 H        -2.976778        -1.023338        -0.546213
 H        -2.950967        -1.005109         1.683719
 H        -2.786135         1.898014        -0.483155
 H        -5.318838         0.001558        -1.012592
 H        -5.330428         1.763193        -1.236392
 H        -2.380901        -0.179768        -2.701387
 H        -2.128225         1.595351        -2.805555
