19
Iteration:  1940charge 0 multiplicity 1
 C         1.212594        -0.066915        -0.615334
 C        -0.102731        -0.010356        -0.010875
 C        -1.290084        -0.080478         0.371285
 C        -2.752475        -0.029635         0.282008
 O        -3.346235         0.251386         1.539785
 C        -3.131206         0.985909        -0.866160
 C        -4.509806         1.035177        -1.586434
 O        -3.932478         0.396645        -2.755143
 C        -2.632043         0.394730        -2.163530
 H         1.841278        -1.043694        -0.498032
 H         0.923639         0.250197        -1.680074
 H         1.932600         0.744750        -0.355866
 H        -3.079023        -0.955495        -0.171116
 H        -2.672701         0.352554         2.225076
 H        -2.713733         2.016731        -0.665178
 H        -5.283859         0.414719        -1.057717
 H        -4.629430         2.034814        -1.970059
 H        -2.247257        -0.630274        -1.995952
 H        -1.860052         0.859705        -2.822526
