19
Iteration:  1578
 C         1.283912         0.383966         0.329366
 C        -0.003297        -0.251457         0.047841
 C        -1.254210        -0.338660        -0.161178
 C        -2.741106        -0.280083        -0.128544
 O        -3.121251        -0.170600         1.229771
 C        -2.873323         0.935017        -1.055883
 C        -4.297649         1.409446        -1.228225
 O        -4.405232         0.686035        -2.497244
 C        -3.012769         0.357059        -2.554881
 H         1.643895         0.661747        -0.619402
 H         1.183367         1.380152         0.688673
 H         2.013020        -0.099758         0.961033
 H        -3.201146        -1.260756        -0.440898
 H        -2.364968         0.000580         1.769748
 H        -2.062055         1.641449        -0.873420
 H        -4.976686         1.252529        -0.374088
 H        -4.420042         2.539109        -1.411385
 H        -2.865252        -0.703096        -2.552663
 H        -2.467633         0.893412        -3.375870
