19
Iteration:  2175
 C         1.610427        -0.148000         0.471042
 C         0.162711        -0.392022         0.289455
 C        -1.030843        -0.122240         0.000125
 C        -2.424696        -0.070351        -0.080585
 O        -3.001205         0.492861         1.161592
 C        -3.112736         0.871707        -1.136600
 C        -4.685639         0.655298        -1.220507
 O        -4.659942         0.671270        -2.687410
 C        -3.192906         0.816826        -2.748004
 H         1.807459         0.432757         1.310248
 H         2.098832        -1.170257         0.568214
 H         2.081697         0.291319        -0.428282
 H        -2.818005        -1.177676        -0.198268
 H        -2.610496        -0.093012         1.816052
 H        -2.893260         1.890261        -0.775315
 H        -4.968955        -0.325637        -0.829052
 H        -5.189488         1.558755        -0.982499
 H        -2.709555         0.027049        -3.359373
 H        -2.856427         1.772988        -3.138957
