19
Iteration:  1222
 C         1.019693        -0.667740        -0.748417
 C        -0.370364        -0.521398        -0.382086
 C        -1.398994        -0.173764         0.247820
 C        -2.845565        -0.034162         0.576327
 O        -3.004250         1.038429         1.569057
 C        -3.708773         0.366395        -0.714527
 C        -3.426858        -0.255401        -2.178183
 O        -3.329676         1.113429        -2.788972
 C        -3.501388         1.657066        -1.473061
 H         1.487451         0.420274        -0.852754
 H         1.583096        -1.147709         0.050149
 H         1.012120        -1.334232        -1.641829
 H        -3.215089        -0.927846         1.092369
 H        -2.863690         1.941454         1.183764
 H        -4.739613         0.335771        -0.214583
 H        -2.535698        -0.796308        -2.153133
 H        -4.283875        -0.741920        -2.660211
 H        -2.617324         2.259742        -1.170908
 H        -4.381016         2.297351        -1.561917
