19
Iteration:  2493
 C         1.455532         0.010305        -0.214040
 C        -0.017810         0.012643         0.128714
 C        -1.239804        -0.042268         0.149868
 C        -2.634785        -0.235962         0.070592
 O        -3.284144        -0.069696         1.321559
 C        -3.156008         0.799005        -0.866525
 C        -4.613783         0.698934        -1.330366
 O        -4.137177         0.975693        -2.726699
 C        -2.753232         0.761633        -2.375696
 H         1.478737        -0.459026        -1.184687
 H         1.822981         1.138839        -0.261103
 H         2.082660        -0.595649         0.430687
 H        -2.938085        -1.303861        -0.352639
 H        -2.853510        -0.694996         1.889379
 H        -2.954868         1.804693        -0.444790
 H        -5.158255        -0.291734        -1.471738
 H        -5.272396         1.512820        -1.019287
 H        -2.304007        -0.195804        -2.658270
 H        -2.357804         1.704830        -2.712850
