19
Iteration:  3065
 C         1.572387        -0.294925         0.244060
 C         0.110599        -0.024051         0.255191
 C        -1.050949        -0.050592        -0.100629
 C        -2.513988        -0.013399        -0.194369
 O        -3.192614        -0.094357         1.087850
 C        -3.181523         1.094852        -0.958622
 C        -4.686084         0.711972        -1.213400
 O        -4.395195         0.658763        -2.611509
 C        -3.018706         1.029772        -2.436654
 H         2.038943         0.086209        -0.571860
 H         1.974649         0.040190         1.205422
 H         1.796902        -1.360645         0.012421
 H        -2.933855        -0.996146        -0.627696
 H        -2.606354        -0.510135         1.706493
 H        -2.958544         2.069340        -0.409721
 H        -4.860269        -0.281512        -0.799757
 H        -5.435187         1.427982        -0.930696
 H        -2.308836         0.295389        -2.737166
 H        -2.802687         1.917286        -3.145036
