19
Iteration:  3742
 C         1.506658        -0.138990        -0.072289
 C         0.070390         0.016909         0.037663
 C        -1.167445        -0.114040         0.133228
 C        -2.610465        -0.196964         0.062564
 O        -3.250239        -0.195350         1.400145
 C        -3.270684         0.977800        -0.823753
 C        -4.686364         0.879787        -1.468223
 O        -4.191922         0.968556        -2.853234
 C        -2.818657         0.814087        -2.294790
 H         2.052351         0.572273        -0.806218
 H         2.071747         0.050144         0.874019
 H         1.723711        -1.145665        -0.416163
 H        -2.860825        -1.218895        -0.484958
 H        -2.806144        -0.865797         1.926123
 H        -3.108365         1.985791        -0.393300
 H        -5.140290        -0.225227        -1.291121
 H        -5.424991         1.609380        -1.080697
 H        -2.405454        -0.206064        -2.614755
 H        -2.026784         1.380081        -2.878360
