19
Iteration:  4867charge 0 multiplicity 1
 C         1.490817        -0.183874         0.610479
 C         0.101814        -0.064285         0.186971
 C        -1.078076        -0.084545        -0.167733
 C        -2.477746        -0.130426        -0.467044
 O        -3.028589        -0.752359         0.803460
 C        -3.037842         1.169103        -1.011392
 C        -4.589877         1.130117        -0.978667
 O        -4.597608         0.774053        -2.403247
 C        -3.159002         1.160498        -2.556720
 H         1.941544         0.613189         1.144317
 H         1.661033        -1.035321         1.205399
 H         2.181572        -0.446279        -0.296176
 H        -2.751614        -0.886528        -1.292933
 H        -2.388404        -0.541474         1.505047
 H        -2.645823         2.177839        -0.529081
 H        -5.087796         0.352195        -0.278927
 H        -5.159986         2.057663        -0.849390
 H        -2.557172         0.326772        -3.038730
 H        -2.897943         2.214636        -2.900800
