19
Iteration:   326
 C         1.188026        -0.016354        -0.817334
 C        -0.090056        -0.083584         0.093622
 C        -1.229415         0.048802         0.535083
 C        -2.717569        -0.024977         0.381781
 O        -3.515390         0.301957         1.461941
 C        -3.047387         0.924904        -0.803946
 C        -4.456799         0.800039        -1.504799
 O        -3.879583         0.459387        -2.828862
 C        -2.614252         0.499364        -2.248555
 H         0.620758         0.296943        -1.747772
 H         2.064138         0.739568        -0.528050
 H         1.770865        -0.955443        -0.927870
 H        -2.916657        -1.046300         0.020467
 H        -3.268054        -0.246395         2.190639
 H        -2.782023         1.935325        -0.457393
 H        -5.039195        -0.105080        -1.222169
 H        -5.280852         1.590472        -1.447299
 H        -1.982393        -0.384123        -2.574556
 H        -1.969275         1.376505        -2.571475
