19
Iteration:  4426
 C         1.532896         0.015400         0.139296
 C         0.161247        -0.137028         0.001433
 C        -1.056442        -0.344016        -0.144600
 C        -2.579235        -0.276917        -0.152491
 O        -3.192155        -0.476425         1.240915
 C        -3.255711         0.969508        -0.771282
 C        -4.761798         0.758637        -1.339810
 O        -4.243747         0.988912        -2.704231
 C        -2.916843         1.436493        -2.232124
 H         2.107193         0.118206        -0.846330
 H         1.804705         0.901011         0.810006
 H         1.956019        -0.838205         0.542056
 H        -2.927180        -1.105515        -0.763371
 H        -3.200280        -1.459139         1.298698
 H        -3.219726         1.746154        -0.006390
 H        -5.062766        -0.280240        -1.362682
 H        -5.548388         1.347823        -1.087646
 H        -2.108917         0.881993        -2.560143
 H        -3.024766         2.575972        -2.145749
