19
Iteration:  2804charge 0 multiplicity 1
 C         1.634517         0.056918         0.337498
 C         0.175756        -0.032759         0.096736
 C        -1.065040         0.005243         0.080866
 C        -2.476163        -0.371697        -0.180875
 O        -3.248184        -0.417784         1.090588
 C        -3.091775         0.703441        -1.068698
 C        -4.569007         1.132965        -1.143995
 O        -4.508721         1.219548        -2.612987
 C        -3.189684         0.600879        -2.569034
 H         1.681724         0.485784         1.411343
 H         2.042046        -0.925538         0.372795
 H         2.169303         0.784256        -0.111086
 H        -2.527894        -1.388336        -0.743924
 H        -2.570414        -0.512554         1.807262
 H        -2.526384         1.720015        -0.993573
 H        -5.281855         0.341585        -0.937281
 H        -4.887432         1.980646        -0.456823
 H        -3.335816        -0.432107        -3.047363
 H        -2.401159         1.140104        -3.105595
