19
Iteration:  2011charge 0 multiplicity 1
 C         1.206756        -0.101309        -0.600238
 C        -0.078541        -0.116451        -0.015514
 C        -1.166078        -0.045115         0.634181
 C        -2.633914        -0.052190         0.306514
 O        -3.504589         0.406447         1.307435
 C        -2.947787         0.868370        -0.913690
 C        -4.469664         0.701348        -1.313712
 O        -4.056524         0.601688        -2.719222
 C        -2.683616         0.513878        -2.386733
 H         1.920886        -0.713986        -0.100786
 H         1.051075        -0.479662        -1.660670
 H         1.735354         0.856568        -0.752293
 H        -2.684743        -1.179781         0.030907
 H        -3.599479         1.368363         1.160672
 H        -2.679066         1.863868        -0.592898
 H        -4.855226        -0.205781        -1.113656
 H        -5.099710         1.578661        -1.127552
 H        -2.226136        -0.484477        -2.406764
 H        -2.027386         1.204386        -2.883433
