19
Iteration:  4501
 C         1.384514        -0.064345        -0.247512
 C        -0.015339         0.039432        -0.123563
 C        -1.218464        -0.116966        -0.021511
 C        -2.684668        -0.125824        -0.026117
 O        -3.342312        -0.798951         1.195667
 C        -3.365292         1.154728        -0.599569
 C        -4.624548         0.709854        -1.470888
 O        -3.806238         0.756158        -2.696129
 C        -2.763283         1.467131        -1.931989
 H         1.814834        -0.712708        -1.083556
 H         1.855730         0.933629        -0.519148
 H         1.819057        -0.511554         0.619154
 H        -2.808697        -0.866799        -0.926640
 H        -2.804270        -0.576682         1.977876
 H        -3.651650         1.983558         0.172990
 H        -5.105346        -0.349646        -0.968197
 H        -5.460500         1.496495        -1.475271
 H        -1.789667         1.084593        -2.165501
 H        -2.755005         2.571998        -2.098211
