19
Iteration:  3693charge 0 multiplicity 1
 C         1.461240        -0.024629         0.298733
 C         0.029923        -0.243603         0.025525
 C        -1.137318        -0.182350        -0.125809
 C        -2.598546        -0.225413        -0.123223
 O        -3.185881        -0.027425         1.153804
 C        -3.052323         0.926956        -0.912868
 C        -4.560871         0.920895        -1.210757
 O        -4.412913         0.797316        -2.655099
 C        -2.947618         0.893902        -2.417733
 H         1.832326         0.952473         0.097853
 H         1.651634        -0.038686         1.372401
 H         2.241032        -0.641898        -0.380315
 H        -2.967837        -1.261941        -0.580575
 H        -2.840314        -0.778768         1.682304
 H        -2.486995         1.837509        -0.528418
 H        -5.065703         0.135906        -0.689339
 H        -4.990449         1.940869        -1.140386
 H        -2.359976         0.156670        -2.921292
 H        -2.490747         1.745983        -2.829474
