19
Iteration:  1524charge 0 multiplicity 1
 C         1.345287         0.247948        -0.134001
 C        -0.066079        -0.052032         0.062356
 C        -1.211402        -0.299502         0.118788
 C        -2.692647        -0.332278         0.049175
 O        -3.327524        -0.159321         1.352323
 C        -3.025233         0.778722        -0.940427
 C        -4.496621         1.185335        -1.301738
 O        -4.201636         0.841857        -2.696714
 C        -2.768875         0.522423        -2.424935
 H         1.635940         0.438765        -1.157599
 H         1.820555         1.093041         0.541956
 H         2.010112        -0.613499         0.137096
 H        -2.985503        -1.341276        -0.111210
 H        -3.017335         0.665422         1.711544
 H        -2.370497         1.604671        -0.629262
 H        -5.292719         0.557402        -0.901981
 H        -4.515272         2.276934        -1.189426
 H        -2.433825        -0.459268        -2.743797
 H        -2.122374         1.392968        -2.818142
