19
Iteration:  3874
 C         1.277181         0.015025        -0.473903
 C        -0.079759        -0.265588        -0.090074
 C        -1.305028        -0.251814         0.057845
 C        -2.780305        -0.231014         0.236523
 O        -3.200642         0.127766         1.578345
 C        -3.418347         0.824087        -0.674055
 C        -4.521441         0.468422        -1.746320
 O        -3.798461         1.018029        -2.837526
 C        -2.629256         1.118637        -1.975988
 H         1.431207        -0.487130        -1.481208
 H         1.348734         1.122855        -0.381668
 H         1.963006        -0.656897         0.295244
 H        -3.160097        -1.217888        -0.029659
 H        -2.937531        -0.650302         2.069056
 H        -3.707307         1.632497        -0.013690
 H        -4.658511        -0.606493        -1.706424
 H        -5.396799         1.094226        -1.709290
 H        -1.951970         0.334834        -2.328077
 H        -2.164241         2.139020        -2.093377
