19
Iteration:   979
 C         1.196653        -0.281346        -0.225723
 C        -0.266405        -0.335475        -0.248023
 C        -1.532491        -0.226278        -0.316801
 C        -2.896835        -0.117725         0.281350
 O        -2.482912         0.753939         1.416679
 C        -3.931339         0.616937        -0.666141
 C        -4.206324        -0.142815        -1.989886
 O        -3.349222         0.802360        -2.733153
 C        -3.192282         1.595659        -1.610957
 H         1.354222         0.599886         0.500415
 H         1.681345        -1.186690         0.093804
 H         1.491684         0.075030        -1.220652
 H        -3.266933        -1.163299         0.473554
 H        -2.937790         0.614285         2.238604
 H        -4.771829         1.020541        -0.062506
 H        -3.836983        -1.125158        -1.865590
 H        -5.277291        -0.132831        -2.311547
 H        -2.129322         1.696670        -1.278186
 H        -3.714662         2.568039        -1.724293
