19
Iteration:  2356charge 0 multiplicity 1
 C         1.430391         0.217014         0.505266
 C         0.129114        -0.309678         0.120565
 C        -1.078465        -0.367820        -0.035325
 C        -2.527734        -0.320441        -0.172076
 O        -3.194896         0.178235         0.999129
 C        -2.849687         0.738229        -1.188842
 C        -4.371268         0.953630        -1.007306
 O        -4.596501         0.943535        -2.508157
 C        -3.225013         0.625664        -2.737354
 H         1.669290         1.174931        -0.052253
 H         1.380495         0.718449         1.387389
 H         2.309249        -0.399693         0.370285
 H        -3.035923        -1.375581        -0.285867
 H        -2.783419        -0.176612         1.840410
 H        -2.302306         1.699410        -1.044220
 H        -4.900739         0.055765        -0.579668
 H        -4.728177         1.965360        -0.651377
 H        -3.150026        -0.357730        -3.076147
 H        -2.606165         1.463831        -3.119878
