19
Iteration:  1959charge 0 multiplicity 1
 C         1.102549        -0.066539        -0.740109
 C        -0.091598        -0.013614         0.151117
 C        -1.240648         0.010028         0.377392
 C        -2.699147        -0.004022         0.255594
 O        -3.518600         0.260039         1.437159
 C        -2.981243         0.932487        -0.833804
 C        -4.433512         0.985117        -1.435471
 O        -3.993554         0.438188        -2.730091
 C        -2.559835         0.358502        -2.261120
 H         1.721374        -1.068098        -0.549352
 H         0.923707        -0.085331        -1.769840
 H         1.786580         0.731162        -0.480949
 H        -2.869796        -1.056844        -0.078996
 H        -2.902500         0.748106         2.053368
 H        -2.485257         1.862572        -0.529036
 H        -5.055771         0.107754        -0.898443
 H        -4.927748         1.956004        -1.596715
 H        -2.083593        -0.675920        -2.384063
 H        -1.792479         1.043278        -2.749116
