19
Iteration:  3238
 C         1.163664        -0.139241        -0.587706
 C        -0.167384        -0.039504        -0.093847
 C        -1.336138        -0.069222         0.210355
 C        -2.760177        -0.170293         0.204265
 O        -3.335916        -0.037917         1.472745
 C        -3.252710         0.972799        -0.673111
 C        -4.533460         0.529971        -1.585637
 O        -3.722205         0.752654        -2.798105
 C        -2.540648         1.093743        -1.996045
 H         1.242082        -0.951153        -1.310869
 H         1.294280         0.690731        -1.331352
 H         1.933515        -0.222233         0.136735
 H        -2.904611        -1.245266        -0.326060
 H        -2.664815         0.338584         2.088024
 H        -3.347707         1.834770        -0.006333
 H        -4.958825        -0.471484        -1.414874
 H        -5.436137         1.160687        -1.587430
 H        -1.691502         0.335289        -2.127718
 H        -2.121666         2.113171        -2.167559
