19
Iteration:  3054charge 0 multiplicity 1
 C         1.525007        -0.264636         0.227150
 C         0.120282        -0.031402         0.317324
 C        -1.056646        -0.055577        -0.009817
 C        -2.499209        -0.071150        -0.258653
 O        -3.178976        -0.091860         1.019898
 C        -3.149181         1.126180        -0.950780
 C        -4.576895         0.692687        -1.134563
 O        -4.467203         0.693625        -2.605344
 C        -3.057939         0.975711        -2.514905
 H         1.981493         0.340822        -0.413406
 H         2.125073        -0.147590         1.146109
 H         1.507628        -1.368710         0.180938
 H        -2.596549        -0.935207        -1.033970
 H        -2.506404        -0.349813         1.684935
 H        -3.040126         2.137539        -0.431481
 H        -5.008409        -0.179717        -0.659351
 H        -5.277221         1.473820        -0.934360
 H        -2.514724         0.119546        -2.804869
 H        -2.717504         1.979178        -3.006782
