19
Iteration:   889charge 0 multiplicity 1
 C         1.340190        -0.167426        -0.353615
 C        -0.061308        -0.360572        -0.021401
 C        -1.285207        -0.004161         0.042858
 C        -2.772120        -0.023351         0.295065
 O        -2.959492         0.299224         1.685923
 C        -3.554843         0.862581        -0.748825
 C        -4.382144         0.035509        -1.787203
 O        -3.872041         0.800982        -2.970112
 C        -2.883995         1.404197        -1.997163
 H         2.070231         0.282545         0.250921
 H         1.856835        -1.176276        -0.673842
 H         1.317776         0.305850        -1.356818
 H        -3.148195        -1.062483         0.169826
 H        -3.894093         0.289111         1.868281
 H        -4.159606         1.618654        -0.300354
 H        -4.073108        -0.998300        -1.744364
 H        -5.486413         0.105762        -1.919825
 H        -1.947057         0.797248        -2.134175
 H        -2.732055         2.443799        -2.282028
