19
Iteration:  2434charge 0 multiplicity 1
 C         1.409037         0.211305         0.225257
 C         0.009223        -0.084821        -0.096845
 C        -1.206446        -0.125853        -0.118154
 C        -2.599889        -0.262875        -0.024202
 O        -3.004278        -0.146563         1.422025
 C        -3.241011         0.760192        -0.938160
 C        -4.672117         1.004163        -1.348970
 O        -4.202150         1.165251        -2.748708
 C        -2.980947         0.362638        -2.388129
 H         2.078206         0.333170        -0.655098
 H         1.669811         1.039402         0.808621
 H         1.813649        -0.697580         0.795493
 H        -3.010098        -1.255325        -0.271555
 H        -2.263206        -0.558736         1.929325
 H        -2.737605         1.732129        -0.843858
 H        -5.423054         0.114016        -1.408745
 H        -5.243658         1.863472        -0.859220
 H        -2.819481        -0.741305        -2.555197
 H        -2.090127         0.664871        -2.970568
