19
Iteration:  4083charge 0 multiplicity 1
 C         1.487707        -0.220974         0.197118
 C         0.074726        -0.224312         0.158241
 C        -1.086350         0.067591        -0.064401
 C        -2.542860        -0.144063        -0.209908
 O        -3.183502        -0.404963         1.036882
 C        -3.154773         1.062305        -0.810148
 C        -4.673503         0.872135        -1.243020
 O        -4.320666         0.735054        -2.610643
 C        -3.003512         1.235021        -2.365333
 H         1.928073        -0.754754         1.009176
 H         1.936797        -0.635673        -0.684663
 H         1.905105         0.844409         0.221084
 H        -2.610966        -1.095387        -0.792045
 H        -2.697626        -0.941606         1.690118
 H        -2.889898         2.015773        -0.285656
 H        -5.094581        -0.125299        -0.782165
 H        -5.158230         1.835858        -1.150074
 H        -2.268661         0.623661        -2.920305
 H        -2.920258         2.327718        -2.605815
