19
Iteration:  1676charge 0 multiplicity 1
 C         1.603635        -0.200159         0.890227
 C         0.224056        -0.111636         0.264763
 C        -0.883449        -0.028313        -0.159194
 C        -2.352325        -0.029175        -0.326370
 O        -3.029211         0.046548         0.943561
 C        -3.008751         1.020947        -1.312363
 C        -4.568233         1.119999        -1.099847
 O        -4.860946         0.578861        -2.514433
 C        -3.421363         0.482386        -2.690207
 H         2.409284        -0.468425         0.066149
 H         1.995566         0.768858         1.096324
 H         1.743968        -0.795659         1.813571
 H        -2.619914        -1.151290        -0.680792
 H        -2.595286         0.682938         1.523699
 H        -2.556442         2.030779        -1.396246
 H        -4.923154         0.425466        -0.309487
 H        -4.988198         2.129068        -0.845760
 H        -2.995645        -0.554970        -2.899720
 H        -3.077803         1.031091        -3.575476
