19
Iteration:  3127
 C         1.457554        -0.201277         0.073165
 C        -0.026641        -0.149681        -0.148303
 C        -1.250745        -0.102174        -0.205703
 C        -2.706149        -0.144910         0.008638
 O        -2.987991         0.036767         1.446735
 C        -3.381008         1.038247        -0.761218
 C        -4.681476         0.728390        -1.484815
 O        -4.020759         0.526260        -2.768623
 C        -2.878902         1.212177        -2.195810
 H         2.163385        -0.134684        -0.843480
 H         1.827734         0.605397         0.745228
 H         1.622424        -1.116399         0.670532
 H        -3.031400        -1.074770        -0.308860
 H        -2.767289        -0.845847         1.728685
 H        -3.319674         1.915655        -0.193147
 H        -5.237953        -0.201778        -1.218761
 H        -5.439483         1.556927        -1.481279
 H        -1.888683         0.673862        -2.359856
 H        -2.885385         2.199656        -2.549950
