19
Iteration:  2507
 C         1.313891         0.004952        -0.303645
 C         0.040279        -0.076393         0.220432
 C        -1.171135        -0.076186         0.255156
 C        -2.595178        -0.247968         0.050597
 O        -3.328159        -0.017770         1.283845
 C        -3.134441         0.863429        -0.854378
 C        -4.550210         0.635482        -1.384378
 O        -4.190001         0.891133        -2.755254
 C        -2.759584         0.942491        -2.345764
 H         1.345554        -0.561622        -1.326174
 H         1.758260         1.043358        -0.453923
 H         2.097928        -0.384902         0.355257
 H        -2.772892        -1.355429        -0.416365
 H        -3.033659        -0.639099         1.999850
 H        -2.943486         1.830227        -0.289227
 H        -4.799473        -0.365471        -1.090355
 H        -5.367121         1.258621        -1.015117
 H        -2.344877         0.094250        -2.707308
 H        -2.091082         1.723460        -2.689392
