19
Iteration:  3718
 C         1.520614        -0.095635         0.115442
 C         0.023726        -0.042351         0.044769
 C        -1.189398        -0.172764        -0.033229
 C        -2.624991        -0.180507        -0.033395
 O        -3.189797        -0.120537         1.270612
 C        -3.173443         0.972147        -0.853405
 C        -4.675613         0.880298        -1.302283
 O        -4.241119         0.890644        -2.724517
 C        -2.862341         0.816194        -2.389505
 H         2.030481         0.739976        -0.340914
 H         1.897643        -0.011758         1.135709
 H         1.969445        -1.004188        -0.445359
 H        -2.981262        -1.170431        -0.611881
 H        -3.004573        -0.949230         1.717710
 H        -2.811430         2.000369        -0.513613
 H        -5.306879        -0.047522        -0.953265
 H        -5.224774         1.783830        -1.112509
 H        -2.403803        -0.110810        -2.830404
 H        -2.210224         1.484322        -2.888053
