19
Iteration:  4453
 C         1.474773         0.014474        -0.014207
 C         0.092452        -0.178743        -0.003114
 C        -1.149524        -0.148400        -0.069323
 C        -2.668884        -0.330257        -0.132569
 O        -3.197117        -0.448584         1.116889
 C        -3.302432         0.927957        -0.687523
 C        -4.656156         0.732181        -1.350578
 O        -4.078343         0.854177        -2.725480
 C        -2.883290         1.528409        -2.051900
 H         1.901940        -0.127106        -0.978364
 H         1.763714         1.008869         0.261167
 H         1.995405        -0.835397         0.600302
 H        -2.969906        -1.284109        -0.858660
 H        -2.928440        -1.315062         1.469387
 H        -3.424543         1.566886         0.214334
 H        -5.246498        -0.178670        -1.289695
 H        -5.329786         1.681695        -1.195013
 H        -1.859737         1.061819        -2.278262
 H        -3.085126         2.533734        -2.029143
