19
Iteration:  3707
 C         1.465842        -0.046123         0.201088
 C         0.024540        -0.149626         0.039343
 C        -1.142822        -0.125835        -0.103688
 C        -2.615783        -0.239341        -0.107267
 O        -3.192419        -0.073839         1.239183
 C        -3.132981         0.937677        -0.926170
 C        -4.640392         0.949054        -1.224156
 O        -4.289625         0.834142        -2.650514
 C        -2.829979         0.851468        -2.466744
 H         1.874708         0.882854        -0.242873
 H         1.749340        -0.166196         1.247565
 H         1.973180        -0.912698        -0.342626
 H        -2.956291        -1.276654        -0.553318
 H        -3.039242        -0.847877         1.781470
 H        -2.902404         1.907061        -0.366388
 H        -5.156792        -0.056970        -0.923481
 H        -5.199044         1.790172        -0.835579
 H        -2.432124        -0.169915        -2.715238
 H        -2.454385         1.721704        -2.947445
