19
Iteration:  2851
 C         1.419697         0.313177         0.541464
 C         0.088644        -0.217982         0.291708
 C        -1.031534        -0.472082        -0.130821
 C        -2.487330        -0.371886        -0.306415
 O        -3.058508        -0.145142         0.922524
 C        -2.921165         0.763194        -1.142998
 C        -4.416617         1.055987        -1.014116
 O        -4.590310         1.293787        -2.469657
 C        -3.295531         0.540748        -2.622123
 H         1.563665         1.234445         1.076809
 H         2.095132        -0.458664         0.819732
 H         1.708172         0.726051        -0.465590
 H        -2.966784        -1.286022        -0.845487
 H        -2.864442        -0.954788         1.448831
 H        -2.237310         1.613716        -0.963172
 H        -4.893877         0.137939        -0.549281
 H        -4.753400         1.847588        -0.274946
 H        -3.482413        -0.537984        -2.881321
 H        -2.778290         1.130803        -3.542227
