19
Iteration:  1293charge 0 multiplicity 1
 C         1.154194        -0.400781        -0.261128
 C        -0.256532        -0.330326        -0.170727
 C        -1.517725        -0.284965        -0.177905
 C        -2.854182        -0.076466         0.248419
 O        -2.619425         0.814458         1.382256
 C        -3.796607         0.547997        -0.716413
 C        -4.127291        -0.181045        -2.063647
 O        -3.412349         0.954472        -2.751158
 C        -3.285601         1.641808        -1.518385
 H         1.638495         0.479180        -0.561661
 H         1.506268        -0.655232         0.797871
 H         1.312089        -1.298600        -0.835298
 H        -3.066612        -1.133100         0.579244
 H        -1.739461         0.542079         1.743943
 H        -4.584859         0.780136        -0.052840
 H        -3.593829        -1.051135        -2.366490
 H        -5.170480        -0.215149        -2.280995
 H        -2.235713         1.939091        -1.346084
 H        -4.035664         2.500698        -1.388866
