19
Iteration:   768
 C         1.429560         0.170154        -0.408404
 C         0.069664        -0.102129         0.144875
 C        -1.178883        -0.174582         0.333408
 C        -2.724613        -0.157813         0.158277
 O        -3.380460         0.043456         1.466704
 C        -3.194346         0.948550        -0.868887
 C        -4.601856         0.882407        -1.453802
 O        -4.080529         0.751743        -2.836381
 C        -2.709161         0.546171        -2.350992
 H         2.169197         0.006312         0.301763
 H         1.780668        -0.554358        -1.196467
 H         1.526747         1.180097        -0.841370
 H        -3.027499        -1.164356        -0.211874
 H        -2.991463        -0.716084         1.894156
 H        -2.940036         1.870464        -0.423332
 H        -5.260646         0.048911        -1.112187
 H        -5.186471         1.837788        -1.382014
 H        -2.504050        -0.564317        -2.386707
 H        -1.990196         1.141885        -2.893974
