19
Iteration:  2234charge 0 multiplicity 1
 C         1.567049        -0.443975         0.585786
 C         0.225760         0.149111         0.162052
 C        -1.006137         0.230186        -0.024723
 C        -2.390638         0.038876        -0.238970
 O        -3.172550        -0.068607         1.028647
 C        -3.040297         1.026139        -1.158098
 C        -4.557804         0.987404        -1.161400
 O        -4.704920         0.672119        -2.586118
 C        -3.209996         0.482582        -2.607613
 H         2.294745         0.279554         1.214215
 H         1.496797        -1.281299         1.219678
 H         2.160180        -0.669155        -0.290052
 H        -2.459470        -1.006100        -0.612335
 H        -2.485028        -0.114053         1.760333
 H        -2.632461         2.062227        -1.244906
 H        -4.994490         0.218456        -0.430674
 H        -5.203683         1.845735        -0.774441
 H        -3.140363        -0.552878        -2.683945
 H        -2.778128         1.085805        -3.459486
