19
Iteration:  3822charge 0 multiplicity 1
 C         1.356120        -0.081791        -0.470501
 C        -0.049381        -0.080104        -0.055660
 C        -1.221250        -0.306941         0.241952
 C        -2.680042        -0.239786         0.313353
 O        -3.456194         0.046819         1.485749
 C        -3.214714         0.845269        -0.813591
 C        -4.521638         0.437401        -1.576650
 O        -3.957159         1.156202        -2.827280
 C        -2.608396         1.048639        -2.161248
 H         1.233854         0.127036        -1.587376
 H         1.877585         0.771640         0.018587
 H         1.776855        -0.884310        -0.069560
 H        -3.072779        -1.264859        -0.125219
 H        -2.823923        -0.186446         2.159238
 H        -3.351161         1.716054        -0.204724
 H        -4.588555        -0.737395        -1.703574
 H        -5.540790         0.786906        -1.190616
 H        -2.189527         0.072831        -2.567851
 H        -2.147912         2.051104        -2.512314
