19
Iteration:  1627charge 0 multiplicity 1
 C         1.418277         0.231231         0.617112
 C         0.084133        -0.140581         0.237218
 C        -1.031894        -0.537271        -0.078558
 C        -2.558150        -0.342877        -0.329703
 O        -3.060475         0.083386         1.031840
 C        -2.860211         0.896026        -1.239518
 C        -4.356321         1.276438        -1.177003
 O        -4.713421         0.589412        -2.362234
 C        -3.275720         0.602121        -2.736575
 H         2.259849         0.264552        -0.112201
 H         1.580169         1.278041         1.114880
 H         1.596017        -0.432394         1.498461
 H        -3.067287        -1.215893        -0.484517
 H        -2.321912         0.615283         1.441630
 H        -2.045605         1.623868        -1.201622
 H        -4.852638         0.997125        -0.256450
 H        -4.508915         2.325879        -1.166130
 H        -2.977319        -0.394039        -3.187631
 H        -3.048536         1.488168        -3.405927
