19
Iteration:  4939
 C         1.458203        -0.194317         0.577061
 C         0.217633        -0.245014        -0.035399
 C        -1.006226        -0.165786        -0.172830
 C        -2.457768        -0.110102        -0.379756
 O        -3.117468        -0.483187         0.949828
 C        -3.104902         1.160087        -0.958822
 C        -4.605153         0.835412        -1.069642
 O        -4.523890         0.764820        -2.515237
 C        -3.154964         1.386997        -2.472631
 H         2.019686         0.787647         0.556121
 H         1.423282        -0.373327         1.729171
 H         2.139339        -0.982742         0.400919
 H        -2.651013        -0.800662        -1.135851
 H        -2.513164        -1.022429         1.453635
 H        -2.775080         2.006350        -0.443871
 H        -5.134337         0.003411        -0.465776
 H        -5.256523         1.632624        -0.603489
 H        -2.474018         1.013005        -3.197742
 H        -3.394829         2.366775        -2.645898
