19
Iteration:  3095
 C         1.523164        -0.255938         0.206562
 C         0.092195        -0.197921        -0.125109
 C        -1.086536         0.061839        -0.020759
 C        -2.556177        -0.069019        -0.054858
 O        -3.091698        -0.030133         1.317407
 C        -3.310041         0.990264        -0.848604
 C        -4.709271         0.756322        -1.403878
 O        -4.254463         0.573645        -2.740210
 C        -3.005243         1.153616        -2.337317
 H         2.426402         0.039386        -0.514487
 H         1.699295         0.412167         1.164624
 H         1.793112        -1.398933         0.515121
 H        -2.776180        -1.111674        -0.416434
 H        -2.762020        -0.928605         1.624417
 H        -3.277526         1.894501        -0.301806
 H        -5.390569        -0.091146        -1.072133
 H        -5.262166         1.752830        -1.276740
 H        -2.093329         0.556751        -2.648026
 H        -2.908116         2.066716        -2.833637
