19
Iteration:  3927charge 0 multiplicity 1
 C         1.249390        -0.113984        -0.319233
 C        -0.177231        -0.142383        -0.228952
 C        -1.338662        -0.167877         0.057624
 C        -2.814137        -0.337505         0.196301
 O        -3.114639         0.065615         1.523531
 C        -3.333332         0.858148        -0.738480
 C        -4.541244         0.473669        -1.621650
 O        -3.786333         0.894088        -2.844223
 C        -2.664238         1.322132        -2.018441
 H         1.651216        -0.972015        -0.798710
 H         1.517779         0.823642        -0.805978
 H         1.781145        -0.403250         0.672567
 H        -3.255082        -1.320759        -0.091782
 H        -2.442372        -0.309836         2.087022
 H        -3.665130         1.636997         0.049638
 H        -4.704848        -0.707001        -1.499472
 H        -5.495387         1.017463        -1.534581
 H        -1.751060         0.987169        -2.437838
 H        -2.491082         2.350875        -1.961847
