19
Iteration:  2916
 C         1.302822         0.301926         0.755850
 C         0.116801        -0.101696         0.011235
 C        -0.986195        -0.595503        -0.169855
 C        -2.468561        -0.444823        -0.367959
 O        -2.910764        -0.240317         1.029432
 C        -2.942384         0.723865        -1.116598
 C        -4.395730         1.347492        -1.054020
 O        -4.699690         1.147524        -2.499681
 C        -3.351211         0.566410        -2.655861
 H         1.177480         1.392667         1.096929
 H         1.533659        -0.305610         1.600506
 H         2.139683         0.119760         0.096528
 H        -2.947045        -1.396977        -0.752646
 H        -2.054380        -0.169350         1.436167
 H        -2.096444         1.437306        -0.962339
 H        -5.163882         0.810158        -0.495533
 H        -4.651120         2.351383        -0.626311
 H        -3.352397        -0.452611        -3.074318
 H        -2.843367         1.276254        -3.167134
