19
Iteration:   292
 C         1.133499        -0.077413        -0.709587
 C        -0.088087        -0.054083         0.148798
 C        -1.271932        -0.071096         0.414407
 C        -2.716487        -0.137309         0.330535
 O        -3.342546         0.506016         1.402564
 C        -3.148878         0.810933        -0.773175
 C        -4.506682         0.550865        -1.489955
 O        -3.880152         0.501672        -2.837354
 C        -2.571807         0.771035        -2.235640
 H         0.829336         0.508663        -1.684435
 H         2.052314         0.478012        -0.315677
 H         1.284806        -1.105123        -1.075661
 H        -3.104712        -1.153140         0.221398
 H        -2.936993         0.236038         2.233564
 H        -2.995065         1.853436        -0.373000
 H        -4.892916        -0.456004        -1.368467
 H        -5.249960         1.409531        -1.450689
 H        -1.857412        -0.055887        -2.459621
 H        -2.228640         1.808963        -2.505770
