19
Iteration:  3672
 C         1.485032         0.027193         0.427395
 C         0.168763        -0.290451         0.051602
 C        -1.071573        -0.427775        -0.065371
 C        -2.551589        -0.230584        -0.202877
 O        -3.169852        -0.029442         1.122349
 C        -3.090939         1.022931        -1.028653
 C        -4.603089         1.049366        -1.146999
 O        -4.472005         0.696278        -2.563180
 C        -3.038164         0.988284        -2.591670
 H         1.693669         1.066843         0.406112
 H         1.618899        -0.239498         1.480309
 H         2.238280        -0.537431        -0.330971
 H        -3.042275        -1.211284        -0.684245
 H        -2.585343        -0.489240         1.729747
 H        -2.606262         1.890223        -0.449831
 H        -5.183229         0.207146        -0.717722
 H        -5.107917         2.036459        -1.076543
 H        -2.334819         0.263897        -3.022787
 H        -2.723221         1.824502        -3.133405
