19
Iteration:  1442
 C         1.380872        -0.275389        -0.363379
 C        -0.023237        -0.076835        -0.043038
 C        -1.249020         0.184205         0.207660
 C        -2.697312        -0.106309         0.239329
 O        -3.370934         0.027869         1.481179
 C        -3.324676         0.781737        -0.810741
 C        -4.468884         0.312969        -1.616257
 O        -3.995393         0.980681        -2.761433
 C        -2.664098         1.068952        -2.211958
 H         1.500834         0.251482        -1.352039
 H         1.934977         0.258551         0.279736
 H         1.684735        -1.327841        -0.446756
 H        -2.707542        -1.236379        -0.079905
 H        -2.757459         0.429814         2.155999
 H        -3.421368         1.728836        -0.259018
 H        -4.706638        -0.734617        -1.816847
 H        -5.480864         0.553353        -1.271566
 H        -1.992738         0.344041        -2.768239
 H        -2.351110         2.094879        -2.291360
