19
Iteration:  4983
 C         1.574467        -0.233100         0.400456
 C         0.098696        -0.123184         0.210291
 C        -1.048721        -0.071457        -0.264323
 C        -2.479630        -0.202828        -0.298081
 O        -3.025184        -0.351563         0.974459
 C        -3.293929         0.931756        -0.858859
 C        -4.743078         0.790711        -1.188684
 O        -4.428881         0.979423        -2.611911
 C        -3.012150         1.265664        -2.299403
 H         1.980623         0.525111        -0.319518
 H         1.895794         0.120385         1.454506
 H         1.946723        -1.233110         0.215219
 H        -2.645245        -1.135209        -0.862674
 H        -2.746005        -1.247833         1.148047
 H        -3.072265         1.745891        -0.224864
 H        -5.371844        -0.326429        -1.060710
 H        -5.427087         1.574949        -0.766039
 H        -2.434636         0.540852        -2.898166
 H        -2.722750         2.260849        -2.438072
