19
Iteration:  4605charge 0 multiplicity 1
 C         1.356766         0.115703        -0.302113
 C        -0.058052        -0.156797        -0.127598
 C        -1.241300        -0.182764         0.155293
 C        -2.684841        -0.326944        -0.035540
 O        -3.401486        -0.580212         1.201250
 C        -3.305406         0.934016        -0.662515
 C        -4.520404         0.599175        -1.422388
 O        -3.928039         1.071319        -2.689267
 C        -2.668755         1.410417        -2.002911
 H         1.927684        -0.783724        -0.325779
 H         1.457212         0.566213        -1.264514
 H         1.718004         0.882852         0.471599
 H        -2.837510        -1.194659        -0.660245
 H        -2.670769        -0.574375         1.818529
 H        -3.191792         1.739282         0.007808
 H        -4.866179        -0.628522        -1.483864
 H        -5.340668         1.215883        -1.049824
 H        -1.749420         0.839372        -2.371575
 H        -2.426632         2.513897        -2.084750
