19
Iteration:  3514
 C         1.613664        -0.229004         0.649747
 C         0.133720        -0.095556         0.485203
 C        -0.948832        -0.140119        -0.052350
 C        -2.368753        -0.038974        -0.382225
 O        -3.101278        -0.211468         0.871074
 C        -2.981601         1.115800        -1.278240
 C        -4.506147         1.126280        -1.052967
 O        -4.790941         0.725933        -2.435263
 C        -3.365858         0.673071        -2.748137
 H         2.001560        -0.046788         1.690354
 H         2.057376        -1.205230         0.301168
 H         2.288463         0.453923        -0.005086
 H        -2.680205        -1.082740        -0.853515
 H        -2.576578         0.196392         1.553357
 H        -2.469128         2.040445        -1.117213
 H        -4.768182         0.439641        -0.283063
 H        -5.180321         1.987668        -0.836630
 H        -2.948793        -0.327414        -3.010892
 H        -3.092018         1.526818        -3.396033
