19
Iteration:   961
 C         1.180150        -0.187361        -0.165811
 C        -0.272911        -0.240051        -0.335944
 C        -1.476495        -0.323183        -0.237048
 C        -2.825707        -0.037388         0.271154
 O        -2.532786         0.670128         1.497497
 C        -3.823456         0.650371        -0.689950
 C        -4.323214        -0.110163        -1.987976
 O        -3.483404         0.716248        -2.824438
 C        -3.080447         1.608350        -1.622540
 H         1.668978         0.329559         0.709897
 H         1.580847        -1.190342         0.048303
 H         1.825474        -0.108786        -1.063944
 H        -3.289349        -0.938218         0.632113
 H        -3.122562         0.329923         2.147936
 H        -4.667828         1.010110        -0.035628
 H        -4.060814        -1.188514        -2.289607
 H        -5.438992         0.111529        -2.110256
 H        -1.993643         1.627149        -1.442493
 H        -3.454039         2.683025        -1.682686
