19
Iteration:  1281charge 0 multiplicity 1
 C         1.164423        -0.475452        -0.283047
 C        -0.256333        -0.309891        -0.194327
 C        -1.518622        -0.285171        -0.230473
 C        -2.831698        -0.111985         0.319765
 O        -2.691224         0.868849         1.361393
 C        -3.902848         0.478012        -0.659373
 C        -3.984249        -0.199551        -2.084840
 O        -3.418178         0.957548        -2.728630
 C        -3.271613         1.716109        -1.459011
 H         1.614920         0.437565        -0.722612
 H         1.726752        -0.725882         0.639426
 H         1.479134        -1.183809        -1.063709
 H        -3.401756        -0.996392         0.708018
 H        -1.724553         0.906237         1.561563
 H        -4.885919         0.626487        -0.302083
 H        -3.558935        -1.147800        -2.233140
 H        -4.993903        -0.302613        -2.416399
 H        -2.223361         1.872925        -1.123816
 H        -3.756604         2.730133        -1.600867
