19
Iteration:  4423charge 0 multiplicity 1
 C         1.517028         0.026046         0.153189
 C         0.166575        -0.132573        -0.012550
 C        -1.052383        -0.343987        -0.138986
 C        -2.588309        -0.284409        -0.137306
 O        -3.174843        -0.476708         1.221518
 C        -3.234942         0.976379        -0.783155
 C        -4.745194         0.744212        -1.338183
 O        -4.272702         1.011346        -2.713311
 C        -2.926625         1.419334        -2.229441
 H         2.037176         0.121003        -0.801556
 H         1.801104         0.783534         0.883397
 H         1.985303        -0.895530         0.620442
 H        -2.908469        -1.057022        -0.706222
 H        -3.184229        -1.460573         1.275719
 H        -3.260974         1.799072         0.024317
 H        -5.126298        -0.413356        -1.253080
 H        -5.593392         1.404720        -0.986630
 H        -2.031556         0.903014        -2.604481
 H        -2.901375         2.555056        -2.278099
