19
Iteration:  1646charge 0 multiplicity 1
 C         1.465587         0.082686         0.768331
 C         0.098032        -0.247594         0.200184
 C        -1.039784        -0.221819        -0.102125
 C        -2.422557        -0.216833        -0.279342
 O        -3.058742         0.093620         0.948687
 C        -2.880677         0.828931        -1.328549
 C        -4.366072         1.197534        -1.061418
 O        -4.740779         0.573423        -2.380152
 C        -3.356335         0.576846        -2.783577
 H         2.119152         0.058460        -0.014948
 H         1.671999         1.176167         1.007768
 H         1.826218        -0.425869         1.647463
 H        -2.862832        -1.192629        -0.581847
 H        -2.490291         0.761662         1.372570
 H        -2.305381         1.782899        -1.231905
 H        -4.976318         0.724329        -0.264263
 H        -4.592978         2.341290        -0.952625
 H        -3.092056        -0.319644        -3.249110
 H        -3.207328         1.560532        -3.324522
