19
Iteration:  2757
 C         1.592449        -0.174979         0.126058
 C         0.155323         0.122409         0.246740
 C        -1.069748        -0.025800         0.108549
 C        -2.532072        -0.158284        -0.120683
 O        -3.199279        -0.485836         1.139078
 C        -3.143486         1.068160        -0.939258
 C        -4.723356         0.860507        -1.241683
 O        -4.403586         1.092264        -2.722659
 C        -3.008287         0.731706        -2.463817
 H         2.139732        -0.431731         1.017538
 H         1.479289        -1.051890        -0.579750
 H         2.173358         0.696630        -0.248983
 H        -2.625492        -1.129043        -0.721904
 H        -2.768930        -0.021001         1.844563
 H        -2.884208         2.059621        -0.563977
 H        -5.148407        -0.116994        -0.926719
 H        -5.529467         1.545345        -1.064413
 H        -2.770564        -0.395891        -2.436758
 H        -2.387359         1.222290        -3.099872
