19
Iteration:  4912
 C         1.516839        -0.221224         0.649399
 C         0.166668        -0.198392         0.115366
 C        -1.008855        -0.068944        -0.282814
 C        -2.496347        -0.211436        -0.478435
 O        -3.092906        -0.469093         0.765681
 C        -3.132813         1.096101        -0.950852
 C        -4.626924         1.003378        -0.996422
 O        -4.513050         0.686817        -2.418697
 C        -3.159120         1.319383        -2.423437
 H         1.881415         0.784623         0.761016
 H         1.581772        -0.595827         1.651477
 H         2.306093        -0.840774         0.061623
 H        -2.692779        -0.993500        -1.303540
 H        -2.407684        -0.580082         1.421751
 H        -2.613748         1.890065        -0.244157
 H        -5.195083         0.145566        -0.386648
 H        -5.079859         2.021387        -0.752559
 H        -2.436176         0.806944        -3.176737
 H        -3.481378         2.391978        -2.720100
