19
Iteration:   908charge 0 multiplicity 1
 C         1.290747        -0.196082        -0.326611
 C        -0.110218        -0.287851        -0.153322
 C        -1.336553        -0.251917         0.028879
 C        -2.742446        -0.029773         0.217561
 O        -2.874379         0.415005         1.648043
 C        -3.618807         0.857059        -0.759604
 C        -4.377870         0.004366        -1.791783
 O        -3.763569         0.755710        -2.866132
 C        -2.923030         1.511256        -2.020630
 H         1.509563         0.358425         0.560208
 H         1.965067        -1.163832        -0.225950
 H         1.622013         0.466255        -1.156974
 H        -3.214491        -1.096224         0.267483
 H        -3.794090         0.317240         1.839163
 H        -4.187186         1.484861        -0.060258
 H        -4.054887        -1.075722        -1.833610
 H        -5.448817         0.033911        -1.759089
 H        -1.869483         1.276175        -2.072520
 H        -3.189575         2.550525        -1.927064
