19
Iteration:   890
 C         1.341077        -0.166705        -0.353353
 C        -0.061295        -0.366985        -0.026891
 C        -1.294366        -0.016764         0.040706
 C        -2.769931        -0.021058         0.303396
 O        -2.953820         0.303223         1.676883
 C        -3.563133         0.860072        -0.734564
 C        -4.380919         0.037957        -1.792356
 O        -3.869054         0.794598        -2.968615
 C        -2.886856         1.411281        -1.991561
 H         2.085932         0.298640         0.287620
 H         1.838093        -1.132010        -0.653151
 H         1.340003         0.291126        -1.351714
 H        -3.137169        -1.026061         0.150720
 H        -3.877139         0.292374         1.861324
 H        -4.171165         1.634748        -0.308886
 H        -4.046402        -0.989364        -1.753235
 H        -5.502153         0.098237        -1.940536
 H        -1.929157         0.837512        -2.162065
 H        -2.743372         2.445559        -2.319330
