19
Iteration:  1559
 C         1.304696         0.385985         0.138580
 C        -0.016352        -0.166508        -0.023243
 C        -1.198125        -0.475790        -0.035650
 C        -2.632076        -0.253434        -0.037109
 O        -3.239181        -0.209213         1.299016
 C        -2.903121         0.924352        -1.001626
 C        -4.368101         1.420876        -1.327819
 O        -4.371931         0.730502        -2.607532
 C        -2.950745         0.365112        -2.405209
 H         1.807852         0.673534        -0.784612
 H         1.230893         1.408453         0.831076
 H         1.820837        -0.407788         0.738559
 H        -3.030173        -1.103684        -0.504471
 H        -2.629194         0.094719         1.963319
 H        -2.262024         1.820106        -0.853359
 H        -5.262875         1.152587        -0.730364
 H        -4.484735         2.496071        -1.287454
 H        -2.730353        -0.702285        -2.546456
 H        -2.238506         0.955835        -3.111170
