19
Iteration:  1539
 C         1.437477         0.318096        -0.018391
 C        -0.057259        -0.043650        -0.020176
 C        -1.163723        -0.464224         0.121881
 C        -2.709085        -0.375850         0.046597
 O        -3.311664        -0.179456         1.336902
 C        -3.016961         0.866736        -0.914010
 C        -4.406493         1.331555        -1.317227
 O        -4.260776         0.769605        -2.710886
 C        -2.889326         0.503256        -2.426631
 H         1.803468         0.582267        -1.060116
 H         1.397644         1.257795         0.671953
 H         2.081401        -0.513013         0.389143
 H        -3.258843        -1.140832        -0.513292
 H        -2.738922         0.525326         1.756628
 H        -2.406942         1.718563        -0.502342
 H        -5.262238         0.841779        -0.802575
 H        -4.658964         2.396050        -1.370700
 H        -2.683639        -0.583557        -2.648370
 H        -2.170031         0.980802        -3.121714
