19
Iteration:  4242charge 0 multiplicity 1
 C         1.527068         0.161059         0.626297
 C         0.128856        -0.166981         0.187409
 C        -1.000151        -0.288827        -0.152793
 C        -2.437429        -0.436622        -0.388032
 O        -3.162648        -0.579025         0.890605
 C        -3.000938         0.893801        -1.154897
 C        -4.468234         1.187214        -0.918047
 O        -4.636299         1.247825        -2.384811
 C        -3.271125         0.848603        -2.721708
 H         1.472300         1.168716         1.179821
 H         1.866424        -0.538297         1.459268
 H         2.143533         0.150186        -0.291563
 H        -2.678629        -1.274386        -0.938670
 H        -2.475158        -0.992591         1.427922
 H        -2.234697         1.603088        -1.005145
 H        -5.064092         0.287237        -0.502990
 H        -4.770925         2.185298        -0.389009
 H        -3.129992        -0.156521        -3.068403
 H        -2.807620         1.641295        -3.238015
