19
Iteration:  2638
 C         1.330444        -0.159655        -0.112318
 C        -0.113797        -0.176420        -0.068593
 C        -1.318678         0.071724        -0.123043
 C        -2.745529        -0.177288         0.022588
 O        -2.937703        -0.130697         1.475876
 C        -3.447676         1.008890        -0.702129
 C        -4.652153         0.745609        -1.600767
 O        -3.847195         0.469746        -2.769675
 C        -2.834969         1.272508        -2.110736
 H         1.778322        -1.098028         0.278935
 H         1.719947         0.029638        -1.140375
 H         1.710932         0.443178         0.605075
 H        -2.996415        -1.202072        -0.320909
 H        -1.998549        -0.210958         1.821954
 H        -3.537788         1.822464         0.068745
 H        -5.357543        -0.027267        -1.253821
 H        -5.262423         1.661199        -1.798082
 H        -1.732344         0.941586        -2.270980
 H        -3.080276         2.335564        -2.474269
