19
Iteration:  1852charge 0 multiplicity 1
 C         1.424381        -0.025774         0.026415
 C        -0.017870        -0.306749         0.117511
 C        -1.234672        -0.422422        -0.016359
 C        -2.652459        -0.062158         0.131015
 O        -2.990633         0.651210         1.360057
 C        -3.147617         0.966774        -0.971571
 C        -4.631695         0.719058        -1.373306
 O        -4.278873         0.488417        -2.763883
 C        -2.858773         0.725305        -2.495626
 H         1.902151        -1.042674        -0.101492
 H         1.679248         0.776578        -0.696576
 H         1.904562         0.205343         0.991718
 H        -3.327404        -1.100948         0.059928
 H        -2.964575         0.122432         2.164982
 H        -2.842584         2.017094        -0.750046
 H        -5.074279        -0.166376        -0.850272
 H        -5.405041         1.533146        -1.306318
 H        -2.277442        -0.172788        -2.589884
 H        -2.566568         1.628464        -3.006701
