19
Iteration:  4186
 C         1.494126         0.158234         0.641099
 C         0.111832        -0.131888         0.106898
 C        -1.039181        -0.450727        -0.252815
 C        -2.544233        -0.300421        -0.419684
 O        -3.128657        -0.554759         0.916460
 C        -2.946801         1.011160        -1.013694
 C        -4.427233         1.215504        -1.018653
 O        -4.636592         1.029203        -2.394353
 C        -3.201912         0.901063        -2.571729
 H         1.396856         0.934393         1.532544
 H         2.040396        -0.872560         0.705226
 H         2.102228         0.789563         0.009060
 H        -3.050500        -1.110885        -1.090403
 H        -2.579298        -1.309218         1.269568
 H        -2.263947         1.743285        -0.763003
 H        -5.255933         0.636094        -0.456093
 H        -4.666128         2.281895        -0.607419
 H        -2.817843        -0.033051        -2.998560
 H        -2.744848         1.660625        -3.145510
