19
Iteration:  2665charge 0 multiplicity 1
 C         1.450844        -0.076430        -0.034486
 C        -0.015195        -0.259083        -0.078899
 C        -1.233485        -0.256187        -0.168012
 C        -2.672479        -0.126462         0.021741
 O        -3.114780        -0.079057         1.348512
 C        -3.370245         1.106375        -0.753498
 C        -4.659840         0.581103        -1.475434
 O        -3.968177         0.583637        -2.688188
 C        -2.869660         1.354908        -2.189651
 H         1.875125        -0.920759         0.563458
 H         1.839030        -0.279448        -1.017634
 H         1.883399         0.738833         0.716395
 H        -3.165039        -1.031262        -0.345664
 H        -2.417104         0.426701         1.857922
 H        -3.471752         1.898412        -0.035600
 H        -5.145018        -0.296059        -1.022499
 H        -5.518575         1.260152        -1.598381
 H        -1.920553         0.987933        -2.439403
 H        -2.897410         2.395081        -2.633807
