19
Iteration:  2430charge 0 multiplicity 1
 C         1.385480         0.200766         0.258444
 C         0.005730        -0.099758        -0.034144
 C        -1.203882        -0.134254        -0.162370
 C        -2.632353        -0.276007        -0.013593
 O        -2.968218        -0.129484         1.405046
 C        -3.204100         0.739146        -0.930469
 C        -4.685548         0.992915        -1.336296
 O        -4.208362         1.172228        -2.757464
 C        -3.004712         0.375130        -2.423366
 H         2.022489         0.457772        -0.687840
 H         1.612083         1.184900         0.751100
 H         1.828967        -0.673643         0.666999
 H        -2.927012        -1.240827        -0.377126
 H        -2.290129        -0.515930         1.959143
 H        -2.646953         1.704732        -0.881627
 H        -5.320510         0.132201        -1.197637
 H        -5.067426         1.894583        -0.857925
 H        -2.886812        -0.818407        -2.571384
 H        -2.142048         0.783004        -2.990938
