19
Iteration:  1617
 C         1.426487         0.306625         0.625431
 C        -0.020075        -0.114125         0.180088
 C        -1.086583        -0.635644        -0.124282
 C        -2.523383        -0.331452        -0.235460
 O        -3.063259         0.040576         1.054078
 C        -2.852601         0.877406        -1.242131
 C        -4.361865         1.370511        -1.163413
 O        -4.644555         0.601171        -2.366129
 C        -3.233248         0.558361        -2.712829
 H         2.069998         0.183941        -0.352312
 H         1.478527         1.369369         1.042604
 H         1.944589        -0.433203         1.317779
 H        -3.160384        -1.106609        -0.608327
 H        -2.267769         0.457178         1.510382
 H        -2.221292         1.726981        -0.974137
 H        -5.063255         0.972339        -0.447799
 H        -4.411658         2.412933        -1.360546
 H        -2.941107        -0.465115        -3.148280
 H        -3.012174         1.370424        -3.440318
