19
Iteration:  2647
 C         1.355842        -0.181256        -0.073985
 C        -0.096676        -0.199718        -0.056550
 C        -1.275427        -0.026707        -0.144205
 C        -2.699182        -0.120767        -0.027967
 O        -2.987869        -0.108368         1.453802
 C        -3.418825         0.986122        -0.718499
 C        -4.672765         0.735697        -1.521773
 O        -3.868354         0.477165        -2.791255
 C        -2.865237         1.286984        -2.090436
 H         1.895848        -1.009724         0.285486
 H         1.773561         0.088323        -1.104212
 H         1.507277         0.753038         0.558787
 H        -3.286188        -1.035049        -0.511711
 H        -2.100919         0.038763         1.913574
 H        -3.448052         1.838775        -0.017151
 H        -5.225858        -0.251076        -1.253899
 H        -5.364831         1.599746        -1.520509
 H        -1.683820         1.137197        -2.411071
 H        -3.002820         2.314461        -2.463907
