19
Iteration:  1051
 C         1.090266        -0.601583        -0.664088
 C        -0.349833        -0.373331        -0.346760
 C        -1.465073        -0.210506         0.109252
 C        -2.872394        -0.001154         0.415515
 O        -2.754670         1.022135         1.526678
 C        -3.793666         0.331124        -0.706825
 C        -3.647334        -0.293408        -2.123054
 O        -3.173209         1.048167        -2.653505
 C        -3.591734         1.672057        -1.476611
 H         1.591865         0.279727        -0.282781
 H         1.534384        -1.649896        -0.362864
 H         1.037611        -0.601258        -1.796344
 H        -3.299129        -0.891699         0.830096
 H        -3.647300         1.423557         1.470269
 H        -4.810566         0.211670        -0.347831
 H        -2.774691        -1.036095        -2.352252
 H        -4.660406        -0.574099        -2.528673
 H        -2.775303         2.234992        -0.972284
 H        -4.458549         2.390566        -1.628769
