19
Iteration:  2165charge 0 multiplicity 1
 C         1.572205        -0.150665         0.463428
 C         0.164092        -0.349695         0.214762
 C        -1.019790        -0.258750        -0.073190
 C        -2.486763        -0.044230        -0.015662
 O        -2.947640         0.529119         1.239866
 C        -3.143102         0.854976        -1.130417
 C        -4.679922         0.680504        -1.317022
 O        -4.590029         0.657982        -2.692119
 C        -3.183141         0.835856        -2.721060
 H         1.701088         0.421969         1.364496
 H         2.255179        -1.026641         0.584019
 H         1.812296         0.495792        -0.378800
 H        -2.884743        -1.042792        -0.135745
 H        -2.681542        -0.027348         2.005520
 H        -2.868699         1.798494        -0.682247
 H        -5.117618        -0.348309        -1.018387
 H        -5.450157         1.313526        -0.802976
 H        -2.701401        -0.022250        -3.157588
 H        -2.858351         1.794529        -3.127141
