19
Iteration:  1029charge 0 multiplicity 1
 C         1.172508        -0.395568        -0.519474
 C        -0.278275        -0.473775        -0.397857
 C        -1.454126        -0.361712        -0.031259
 C        -2.864498        -0.067870         0.422077
 O        -2.684930         0.958236         1.464523
 C        -3.934079         0.487135        -0.657604
 C        -3.826209        -0.228178        -2.089010
 O        -3.170920         0.908260        -2.711201
 C        -3.529129         1.780891        -1.478879
 H         1.550661         0.369413         0.163359
 H         1.497365        -1.480762        -0.084832
 H         1.531213        -0.521737        -1.586792
 H        -3.306118        -0.962918         0.818204
 H        -3.628243         1.220456         1.546822
 H        -4.908460         0.590644        -0.171513
 H        -3.156538        -1.160187        -1.847163
 H        -4.812533        -0.482894        -2.535566
 H        -2.718079         2.465676        -1.179660
 H        -4.453261         2.390448        -1.675231
