19
Iteration:  2170
 C         1.607866        -0.149171         0.465088
 C         0.129875        -0.375449         0.246627
 C        -1.009503        -0.192371        -0.032703
 C        -2.439105        -0.052587        -0.037620
 O        -2.979995         0.514649         1.202186
 C        -3.121556         0.865711        -1.148561
 C        -4.688623         0.666352        -1.274872
 O        -4.630439         0.660740        -2.671368
 C        -3.195606         0.825682        -2.754140
 H         1.770117         0.452157         1.458311
 H         2.143147        -1.080945         0.598280
 H         1.892073         0.382891        -0.468246
 H        -2.803001        -1.125743        -0.179193
 H        -2.628175        -0.090893         1.892098
 H        -2.859904         1.809186        -0.599182
 H        -5.009136        -0.366875        -1.016786
 H        -5.356749         1.522507        -0.921803
 H        -2.697899        -0.029104        -3.285147
 H        -2.801621         1.829332        -3.070609
