19
Iteration:  2655charge 0 multiplicity 1
 C         1.379857        -0.147709        -0.025908
 C        -0.038640        -0.238957        -0.068511
 C        -1.255837        -0.154542        -0.172378
 C        -2.703238        -0.088910        -0.012704
 O        -3.047665        -0.092992         1.402961
 C        -3.380379         1.051332        -0.742528
 C        -4.709668         0.649160        -1.460799
 O        -3.906038         0.500303        -2.760647
 C        -2.849478         1.350664        -2.138496
 H         1.882710        -1.014660         0.378140
 H         1.747389         0.050363        -1.048172
 H         1.704562         0.911421         0.429759
 H        -3.029272        -1.086223        -0.428333
 H        -2.243718         0.233563         1.894939
 H        -3.406808         1.939644        -0.138837
 H        -5.196094        -0.336145        -1.308008
 H        -5.380535         1.513171        -1.496238
 H        -1.886593         0.942008        -2.395675
 H        -2.949074         2.416784        -2.235117
