19
Iteration:  4446charge 0 multiplicity 1
 C         1.559808         0.015619         0.025714
 C         0.071050        -0.177994         0.004400
 C        -1.130949        -0.195126        -0.100657
 C        -2.672815        -0.364666        -0.141961
 O        -3.193449        -0.447255         1.148662
 C        -3.302144         0.948796        -0.690269
 C        -4.670847         0.729069        -1.391416
 O        -4.106460         0.896096        -2.719260
 C        -2.915124         1.499958        -2.082984
 H         1.938991        -0.101904        -1.026825
 H         1.864585         0.972692         0.500038
 H         2.138204        -0.688414         0.610216
 H        -2.915308        -1.156390        -0.726293
 H        -3.089958        -1.345551         1.460045
 H        -3.423963         1.672596         0.190778
 H        -5.333640        -0.234949        -1.083714
 H        -5.272014         1.631897        -1.152447
 H        -2.002731         1.101288        -2.517373
 H        -3.080867         2.646950        -2.131641
