19
Iteration:   231charge 0 multiplicity 1
 C         1.349977        -0.177068        -0.233876
 C        -0.160392        -0.226721        -0.246356
 C        -1.309385         0.085137         0.005323
 C        -2.754265         0.023113         0.248829
 O        -2.970277         0.621758         1.608142
 C        -3.504291         0.819431        -0.781827
 C        -4.676462         0.251503        -1.649418
 O        -3.911291         0.574600        -2.866884
 C        -2.627870         0.900935        -2.097238
 H         1.815870         0.685037        -0.611405
 H         1.723734        -0.389003         0.798431
 H         1.786145        -1.067080        -0.691584
 H        -3.064564        -1.048837         0.161225
 H        -2.662366        -0.002900         2.296851
 H        -3.533369         1.841559        -0.530249
 H        -4.743934        -0.849768        -1.584581
 H        -5.634698         0.732828        -1.469067
 H        -1.854770         0.119199        -2.331624
 H        -2.241391         1.898090        -2.368393
