19
Iteration:  4361
 C         1.622039        -0.056992         0.422539
 C         0.154286        -0.054187         0.114191
 C        -1.006435        -0.116582        -0.180591
 C        -2.487629        -0.326983        -0.294393
 O        -3.151596        -0.587841         1.054922
 C        -3.202514         0.896022        -0.902240
 C        -4.730352         0.809832        -1.244044
 O        -4.472968         1.347477        -2.550408
 C        -3.068512         0.999705        -2.393241
 H         2.173629         0.712050        -0.222024
 H         1.757599         0.371613         1.452250
 H         1.922532        -1.013546         0.246634
 H        -2.831269        -1.320093        -0.897118
 H        -2.391017        -0.392957         1.643331
 H        -2.855247         1.741487        -0.354863
 H        -5.001083        -0.212862        -1.261384
 H        -5.386484         1.396956        -0.637023
 H        -2.909829         0.015454        -2.984447
 H        -2.576300         1.899225        -2.856024
