19
Iteration:  2106
 C         1.346559        -0.134005         0.239708
 C        -0.068199        -0.103133        -0.135809
 C        -1.286873        -0.123846        -0.308416
 C        -2.676442        -0.027791         0.147135
 O        -2.777486         0.491402         1.506980
 C        -3.320522         0.782811        -0.869857
 C        -4.740772         0.692950        -1.488676
 O        -4.232196         0.677048        -2.849297
 C        -2.792673         0.589912        -2.298964
 H         1.527626        -0.053773         1.263479
 H         1.867992        -0.995716        -0.244494
 H         1.999935         0.685035        -0.187911
 H        -3.248666        -1.046556         0.124349
 H        -2.061143         0.161518         2.028494
 H        -3.126856         1.872008        -0.625088
 H        -5.038621        -0.382100        -1.363595
 H        -5.364433         1.495458        -1.131206
 H        -2.572632        -0.523874        -2.441824
 H        -2.072067         1.143345        -2.898860
