19
Iteration:  1859
 C         1.377561        -0.025866        -0.009658
 C        -0.041170        -0.242959         0.047139
 C        -1.234675        -0.459268         0.004412
 C        -2.688542        -0.073323         0.127843
 O        -2.991358         0.644542         1.374400
 C        -3.175426         0.971638        -0.924370
 C        -4.610069         0.787910        -1.416606
 O        -4.245583         0.455959        -2.751467
 C        -2.792809         0.676289        -2.417430
 H         1.907754        -0.989406        -0.316352
 H         1.709842         0.640179        -0.748927
 H         1.608249         0.361875         0.993073
 H        -3.281570        -0.862066        -0.106376
 H        -2.856777         0.083527         2.125211
 H        -2.960736         1.967751        -0.580243
 H        -5.158131        -0.140502        -1.031317
 H        -5.338362         1.538494        -1.209061
 H        -2.129465        -0.247432        -2.563157
 H        -2.436448         1.587644        -2.991849
