19
Iteration:  1427
 C         1.243375        -0.293015        -0.346848
 C        -0.054892        -0.012949        -0.047766
 C        -1.264981         0.142329         0.142443
 C        -2.617587        -0.115302         0.229607
 O        -3.247899         0.067501         1.538008
 C        -3.314989         0.742794        -0.801790
 C        -4.544517         0.217804        -1.669951
 O        -3.962194         0.954002        -2.850334
 C        -2.713147         1.228229        -2.125034
 H         1.703230        -0.041372        -1.265361
 H         2.006898        -0.042145         0.528614
 H         1.385496        -1.395836        -0.380525
 H        -2.826502        -1.185944         0.027940
 H        -2.542727         0.350063         2.111998
 H        -3.845056         1.596906        -0.307564
 H        -4.456817        -0.868869        -1.759985
 H        -5.518743         0.664951        -1.436980
 H        -1.840732         0.578709        -2.368207
 H        -2.216066         2.255053        -2.241119
