19
Iteration:   291
 C         1.140725        -0.080009        -0.698662
 C        -0.083730        -0.051966         0.139503
 C        -1.273024        -0.075504         0.413445
 C        -2.726831        -0.136163         0.327017
 O        -3.340092         0.509512         1.408698
 C        -3.151744         0.810023        -0.772800
 C        -4.504547         0.547008        -1.491900
 O        -3.875332         0.506422        -2.837424
 C        -2.579812         0.766954        -2.234199
 H         0.830068         0.517949        -1.691130
 H         2.022602         0.462838        -0.330632
 H         1.277330        -1.096335        -1.094098
 H        -3.110744        -1.148885         0.222119
 H        -2.931075         0.234495         2.219307
 H        -2.970175         1.862426        -0.390681
 H        -4.880670        -0.462758        -1.346165
 H        -5.254642         1.370766        -1.452819
 H        -1.841466        -0.023669        -2.446663
 H        -2.253581         1.826789        -2.528380
