19
Iteration:  1697charge 0 multiplicity 1
 C         1.574673        -0.377041         0.846205
 C         0.312835         0.065890         0.319749
 C        -0.875790         0.103388        -0.111215
 C        -2.327344         0.084458        -0.341963
 O        -2.904238        -0.012960         0.976320
 C        -3.137140         1.031787        -1.286944
 C        -4.712683         1.064272        -1.190317
 O        -4.809153         0.632805        -2.538634
 C        -3.410079         0.395888        -2.669745
 H         2.309948        -0.913605         0.056134
 H         2.252009         0.362208         1.193496
 H         1.271123        -0.892296         1.780064
 H        -2.510180        -0.933712        -0.830919
 H        -2.289033         0.627328         1.456105
 H        -2.889801         2.102983        -1.235882
 H        -5.144865         0.459264        -0.379345
 H        -5.282051         1.952873        -1.124652
 H        -3.121468        -0.766951        -2.660771
 H        -2.994190         0.822555        -3.583060
