19
Iteration:  4645charge 0 multiplicity 1
 C         1.478396         0.198476        -0.133393
 C         0.007583        -0.034433        -0.038194
 C        -1.190764        -0.373846        -0.024055
 C        -2.699265        -0.381862        -0.018315
 O        -3.230906        -0.498742         1.313918
 C        -3.279693         0.771821        -0.762373
 C        -4.705535         0.721056        -1.465053
 O        -4.049627         1.290015        -2.722851
 C        -2.729657         1.209481        -2.070643
 H         2.099985        -0.676384         0.259990
 H         1.780183         0.195639        -1.235660
 H         1.877083         1.040934         0.383704
 H        -3.016073        -1.325423        -0.560691
 H        -3.179166        -1.446341         1.604836
 H        -3.546147         1.618722         0.010823
 H        -5.107981        -0.145811        -1.648287
 H        -5.483184         1.350708        -1.021500
 H        -2.071936         0.445761        -2.480490
 H        -2.146916         2.115455        -2.149187
