19
Iteration:  4071charge 0 multiplicity 1
 C         1.553290        -0.293879         0.147296
 C         0.107840        -0.161666         0.089075
 C        -1.107132         0.103207        -0.055204
 C        -2.515268        -0.134913        -0.166397
 O        -3.251813        -0.364321         1.090950
 C        -3.275397         1.050682        -0.843624
 C        -4.691843         0.814739        -1.224764
 O        -4.242502         0.728965        -2.626105
 C        -2.938668         1.254975        -2.332810
 H         1.777376        -0.906277         0.954277
 H         1.886837        -0.633319        -0.796241
 H         1.950649         0.753341         0.440536
 H        -2.701713        -0.938140        -0.905329
 H        -2.583215        -0.953339         1.524060
 H        -3.068264         1.955921        -0.113010
 H        -5.347234        -0.132113        -0.930105
 H        -5.472772         1.536469        -1.006502
 H        -2.099249         0.693437        -2.840767
 H        -2.743076         2.343731        -2.656472
