19
Iteration:  4140
 C         1.557458         0.005026         0.490689
 C         0.123572        -0.153798         0.049704
 C        -1.032527        -0.256083        -0.198526
 C        -2.503600        -0.316300        -0.355876
 O        -3.269745        -0.430374         0.909248
 C        -3.048591         1.015629        -0.939571
 C        -4.515266         1.120031        -1.027449
 O        -4.539041         0.816039        -2.514089
 C        -3.084250         1.068670        -2.434858
 H         1.494940         0.181795         1.626659
 H         2.127657        -0.873229         0.080913
 H         1.936868         0.959575         0.156720
 H        -2.925007        -1.087844        -1.011508
 H        -2.606694        -0.860661         1.475861
 H        -2.546994         1.762080        -0.431085
 H        -5.092341         0.566080        -0.165477
 H        -4.852499         2.160967        -0.779086
 H        -2.528671         0.338692        -2.996294
 H        -2.753344         2.025642        -2.829033
