19
Iteration:  2651
 C         1.367143        -0.156672        -0.039848
 C        -0.059763        -0.221669        -0.061388
 C        -1.263142        -0.101581        -0.161697
 C        -2.704239        -0.102772        -0.029360
 O        -3.018873        -0.097550         1.428496
 C        -3.395019         1.015275        -0.733846
 C        -4.703967         0.683566        -1.478419
 O        -3.889137         0.484200        -2.779633
 C        -2.851827         1.316545        -2.112942
 H         1.914925        -1.083320         0.336848
 H         1.758737         0.115441        -1.015202
 H         1.562803         0.782713         0.352201
 H        -3.119616        -0.968453        -0.457097
 H        -2.231922         0.143345         1.893969
 H        -3.413641         1.932106        -0.084386
 H        -5.149410        -0.262345        -1.329391
 H        -5.362428         1.573933        -1.475704
 H        -1.837799         1.054357        -2.398908
 H        -2.967736         2.471245        -2.319392
