19
Iteration:  3348
 C         1.358020         0.015806        -0.292228
 C        -0.061797        -0.081138        -0.070310
 C        -1.200351        -0.380777         0.196431
 C        -2.714653        -0.237863         0.170279
 O        -3.298934        -0.042497         1.487699
 C        -3.185216         0.863087        -0.820006
 C        -4.546639         0.723421        -1.479147
 O        -4.049085         1.098838        -2.760355
 C        -2.705124         0.803113        -2.313188
 H         1.798214        -0.866898         0.205223
 H         1.701503         0.193790        -1.314621
 H         1.849131         0.844671         0.211863
 H        -3.137576        -1.204969        -0.219334
 H        -3.130220         0.900385         1.598706
 H        -3.103930         1.797521        -0.323756
 H        -4.820822        -0.345805        -1.561254
 H        -5.419724         1.303257        -1.105986
 H        -2.319542        -0.247191        -2.626011
 H        -1.892744         1.417518        -2.718836
