19
Iteration:  3456charge 0 multiplicity 1
 C         1.474272        -0.033940         0.536897
 C         0.123199        -0.150260         0.001525
 C        -1.061723        -0.177946        -0.164538
 C        -2.453847        -0.204134        -0.165966
 O        -3.094415        -0.048700         1.201774
 C        -3.004562         0.873171        -1.088454
 C        -4.548340         1.065710        -1.153041
 O        -4.586609         0.887402        -2.601166
 C        -3.120219         0.691719        -2.619227
 H         1.369554        -0.370050         1.719840
 H         2.118412        -0.808924         0.079944
 H         1.683826         1.005457         0.431852
 H        -2.741062        -1.354773        -0.470104
 H        -3.002192        -0.950850         1.609204
 H        -2.658907         1.807468        -0.699944
 H        -5.234134         0.347706        -0.600284
 H        -4.800387         2.127335        -1.155272
 H        -2.816676        -0.300013        -2.961096
 H        -2.643717         1.469641        -3.264519
