19
Iteration:  2127charge 0 multiplicity 1
 C         1.370711        -0.132367         0.345928
 C         0.006400        -0.154103        -0.042118
 C        -1.169292        -0.277448        -0.174047
 C        -2.602435        -0.096008         0.028107
 O        -2.747401         0.556929         1.282281
 C        -3.299144         0.890691        -0.926073
 C        -4.772252         0.620749        -1.383726
 O        -4.311899         0.694790        -2.755746
 C        -2.949980         0.676560        -2.384836
 H         1.376026         0.142360         1.454539
 H         1.983055        -1.018082         0.168854
 H         1.848741         0.714001        -0.209513
 H        -3.298807        -1.121308        -0.004344
 H        -2.292865        -0.066756         1.919307
 H        -3.114565         1.992862        -0.753322
 H        -4.972965        -0.369896        -1.189572
 H        -5.408511         1.465039        -1.236024
 H        -2.463872        -0.344360        -2.614805
 H        -2.422338         1.413104        -3.052470
