19
Iteration:  2745
 C         1.572875        -0.206928         0.085025
 C         0.157660         0.084795         0.251396
 C        -1.052401        -0.056409         0.107233
 C        -2.483642        -0.146709        -0.026768
 O        -3.218539        -0.420800         1.149808
 C        -3.237379         0.995402        -0.891512
 C        -4.706081         0.848400        -1.337274
 O        -4.392230         0.984297        -2.690749
 C        -2.983838         0.881948        -2.466686
 H         2.029837        -0.580219         0.954809
 H         1.896599        -0.904555        -0.759431
 H         2.062145         0.759843        -0.324996
 H        -2.756024        -0.989027        -0.711031
 H        -2.912430         0.245875         1.826064
 H        -3.030112         1.985731        -0.558820
 H        -5.044536        -0.195331        -1.162122
 H        -5.287455         1.630245        -0.909264
 H        -2.753842        -0.161108        -2.875193
 H        -2.357517         1.544028        -3.002778
