19
Iteration:  2712charge 0 multiplicity 1
 C         1.530181        -0.169245         0.040805
 C         0.101588        -0.191471        -0.014625
 C        -1.112167        -0.012347         0.096019
 C        -2.577368        -0.268568        -0.024054
 O        -3.256584        -0.182978         1.252494
 C        -3.203235         0.899518        -0.850586
 C        -4.615041         0.697478        -1.323844
 O        -4.276044         0.800402        -2.690837
 C        -2.942827         1.254397        -2.432310
 H         1.921956        -0.566642         0.934589
 H         2.045306        -0.628468        -0.853045
 H         1.792159         0.934425         0.289708
 H        -2.647627        -1.364120        -0.321740
 H        -3.105268         0.736627         1.465993
 H        -3.063352         1.751133        -0.193241
 H        -5.072663        -0.320047        -1.257539
 H        -5.358031         1.366680        -0.897682
 H        -2.172617         0.586061        -2.945184
 H        -2.708029         2.256653        -2.632387
