19
Iteration:  1146
 C         0.644375        -0.961731        -1.149623
 C        -0.412780        -0.300702        -0.319667
 C        -1.371448         0.061827         0.448046
 C        -2.806592         0.157572         0.629905
 O        -3.315903         1.104880         1.562450
 C        -3.507084         0.221320        -0.768390
 C        -2.873492        -0.254030        -2.180817
 O        -3.299240         1.056235        -2.684279
 C        -3.557161         1.610320        -1.384866
 H         1.300351        -0.008772        -1.317566
 H         1.120251        -1.818424        -0.778296
 H         0.122455        -1.186757        -2.113352
 H        -2.993364        -0.904451         1.059589
 H        -2.797630         1.195273         2.347415
 H        -4.478254        -0.299380        -0.530208
 H        -1.853917        -0.301273        -2.193731
 H        -3.345491        -1.041880        -2.786919
 H        -2.819104         2.379261        -1.192686
 H        -4.492670         2.196793        -1.345286
