19
Iteration:  1422
 C         1.267421        -0.323446        -0.307378
 C        -0.075020         0.025158        -0.065075
 C        -1.216326         0.116051         0.145146
 C        -2.668813        -0.138582         0.235719
 O        -3.202665         0.083483         1.556047
 C        -3.360782         0.801307        -0.816959
 C        -4.533309         0.216607        -1.706611
 O        -3.955871         0.928825        -2.884274
 C        -2.717574         1.262101        -2.073731
 H         1.696111        -0.035133        -1.332007
 H         1.976797        -0.092019         0.465368
 H         1.249938        -1.428717        -0.438487
 H        -2.799924        -1.210434         0.032787
 H        -2.393218         0.337347         2.068723
 H        -3.793025         1.551220        -0.168564
 H        -4.565985        -0.905751        -1.823277
 H        -5.647969         0.405496        -1.508310
 H        -1.919998         0.590268        -2.406360
 H        -2.323309         2.257676        -2.091495
