19
Iteration:  3480charge 0 multiplicity 1
 C         1.651822        -0.131178         0.648611
 C         0.198949        -0.101080         0.102767
 C        -1.015183        -0.094952        -0.081759
 C        -2.479858        -0.253885        -0.281280
 O        -3.167722        -0.035524         0.963785
 C        -3.041060         0.889615        -1.147874
 C        -4.555941         1.147202        -1.059621
 O        -4.678684         0.802807        -2.510874
 C        -3.209309         0.680728        -2.634082
 H         1.488488        -0.272321         1.824295
 H         2.120757        -1.086895         0.317961
 H         2.081592         0.858353         0.382168
 H        -2.648443        -1.357742        -0.740811
 H        -2.695015        -0.506022         1.650201
 H        -2.526013         1.747098        -0.886721
 H        -4.946261         0.341498        -0.452163
 H        -4.957215         2.180047        -0.997293
 H        -2.914688        -0.189576        -3.250753
 H        -2.779199         1.532705        -3.190861
