19
Iteration:   111charge 0 multiplicity 1
 C         1.577335        -0.545642         0.410187
 C         0.122867        -0.103732         0.107835
 C        -1.081674         0.067980        -0.109490
 C        -2.485153         0.059351         0.081691
 O        -2.831209         0.545050         1.313696
 C        -3.379161         0.841789        -0.943485
 C        -4.577100         0.090817        -1.529045
 O        -4.592085         0.788490        -2.800914
 C        -3.166354         1.085752        -2.505817
 H         1.834647         0.243642         1.133774
 H         1.670707        -1.549391         0.858316
 H         2.363175        -0.524901        -0.364838
 H        -2.782624        -0.984382         0.076716
 H        -2.303553         1.384288         1.480077
 H        -3.776238         1.718620        -0.506854
 H        -4.191672        -0.890788        -1.824653
 H        -5.488930        -0.031686        -1.086993
 H        -2.521814         0.417624        -2.986828
 H        -2.877198         2.103592        -2.657366
