19
Iteration:  2838
 C         1.546438         0.265905         0.453805
 C         0.116201        -0.098923         0.290903
 C        -0.979937        -0.497211        -0.088189
 C        -2.443576        -0.429140        -0.318923
 O        -3.168568        -0.197302         1.011378
 C        -2.968395         0.817033        -1.162207
 C        -4.491748         1.079018        -1.047352
 O        -4.570598         1.268984        -2.483333
 C        -3.326127         0.596759        -2.626936
 H         1.500544         0.921336         1.394036
 H         2.179593        -0.518729         0.790002
 H         1.953204         0.669730        -0.397515
 H        -2.795487        -1.445305        -0.733058
 H        -2.889189        -0.854878         1.665670
 H        -2.368347         1.816167        -1.037447
 H        -5.029213         0.149076        -0.879536
 H        -4.851300         2.050764        -0.612753
 H        -3.486079        -0.501172        -2.882651
 H        -2.541346         0.930615        -3.299275
