19
Iteration:   901
 C         1.344823        -0.180066        -0.362854
 C        -0.127456        -0.335686        -0.078152
 C        -1.312676        -0.177828         0.033732
 C        -2.728090        -0.000528         0.291032
 O        -2.899819         0.361592         1.635139
 C        -3.648998         0.870923        -0.696121
 C        -4.377098         0.043612        -1.844929
 O        -3.813390         0.749850        -2.892534
 C        -2.888762         1.453373        -2.033451
 H         1.652561         0.404241         0.527774
 H         1.846454        -1.184834        -0.375046
 H         1.537936         0.458470        -1.231842
 H        -3.088801        -1.028598         0.105864
 H        -3.853247         0.310114         1.827807
 H        -4.196161         1.593931        -0.099478
 H        -3.986897        -0.961235        -1.893791
 H        -5.506590        -0.056904        -1.724010
 H        -1.797864         1.200661        -2.159109
 H        -3.026975         2.561299        -2.090454
