19
Iteration:   276charge 0 multiplicity 1
 C         1.220598        -0.088212        -0.622072
 C        -0.113579        -0.042238        -0.031132
 C        -1.269938        -0.202607         0.336043
 C        -2.781514        -0.043054         0.305593
 O        -3.326584         0.566728         1.588064
 C        -3.198349         0.875551        -0.863068
 C        -4.509524         0.424026        -1.533734
 O        -3.878138         0.525915        -2.831570
 C        -2.579761         0.817155        -2.228208
 H         1.211098         0.619372        -1.458535
 H         1.988531         0.142265         0.068166
 H         1.509421        -1.100427        -0.935095
 H        -3.235766        -1.051800         0.144164
 H        -2.803502         0.081105         2.285930
 H        -3.189590         1.857483        -0.408317
 H        -4.699619        -0.627405        -1.178731
 H        -5.396759         0.997541        -1.501847
 H        -1.815039         0.055947        -2.441869
 H        -2.218232         1.825225        -2.552047
