19
Iteration:  2258
 C         1.460336        -0.387447         0.589720
 C         0.144769         0.094934         0.139207
 C        -1.003303         0.368867         0.017369
 C        -2.338033        -0.035974        -0.214163
 O        -3.005334        -0.209074         1.050260
 C        -3.102385         0.896353        -1.162651
 C        -4.623620         1.215228        -1.195901
 O        -4.651790         0.678959        -2.592105
 C        -3.238611         0.428638        -2.619171
 H         2.109747         0.514081         0.948975
 H         1.446188        -1.022509         1.503603
 H         2.077010        -0.825232        -0.251401
 H        -2.199794        -1.027968        -0.557232
 H        -2.241769        -0.274468         1.667662
 H        -2.695551         1.935451        -1.167755
 H        -5.414963         0.686707        -0.566653
 H        -4.941765         2.297648        -1.014907
 H        -3.166930        -0.649402        -2.639934
 H        -2.770531         1.041011        -3.440722
