19
Iteration:  1118
 C         0.736044        -0.895948        -1.078445
 C        -0.418050        -0.357152        -0.378811
 C        -1.327396         0.059403         0.340642
 C        -2.734639         0.040726         0.635122
 O        -3.316196         1.162409         1.434629
 C        -3.525863         0.194314        -0.674611
 C        -3.015689        -0.243165        -2.095291
 O        -3.297495         1.111595        -2.667132
 C        -3.549986         1.632404        -1.372710
 H         1.474265        -0.157908        -1.218329
 H         1.089290        -1.907067        -0.560313
 H         0.434498        -1.079404        -2.157879
 H        -2.913957        -0.882454         1.150644
 H        -3.743652         0.920173         2.254124
 H        -4.447316        -0.258630        -0.384233
 H        -1.863206        -0.537062        -2.179752
 H        -3.654333        -0.959997        -2.677151
 H        -2.694872         2.327223        -1.182047
 H        -4.520297         2.192810        -1.346515
