19
Iteration:  4301
 C         1.567402         0.036468         0.536372
 C         0.155802        -0.094529         0.248992
 C        -0.960050        -0.086306        -0.149165
 C        -2.440040        -0.397504        -0.329776
 O        -3.148084        -0.612362         0.865540
 C        -3.092286         0.769053        -1.023748
 C        -4.550341         0.954858        -1.046278
 O        -4.589421         1.429280        -2.434846
 C        -3.259327         0.844232        -2.604492
 H         1.906659         1.019412         0.398584
 H         1.797790        -0.315921         1.513391
 H         2.332123        -0.622848        -0.061428
 H        -2.428775        -1.367430        -0.882754
 H        -3.171827         0.150853         1.501195
 H        -2.517043         1.763059        -0.852164
 H        -5.090963         0.099267        -0.914179
 H        -4.892578         1.695356        -0.325831
 H        -3.235943        -0.118725        -3.083865
 H        -2.675735         1.469127        -3.298850
