19
Iteration:   130charge 0 multiplicity 1
 C         1.557915        -0.395384         0.392481
 C         0.140372        -0.354892         0.029769
 C        -1.021218        -0.029449        -0.065210
 C        -2.474353         0.162196        -0.038167
 O        -2.952249         0.606167         1.405625
 C        -3.409080         0.892471        -0.983703
 C        -4.528815        -0.036679        -1.554306
 O        -4.534235         0.793360        -2.754243
 C        -3.145611         1.177762        -2.463175
 H         1.977089         0.372132         0.916221
 H         1.788085        -1.464616         0.958604
 H         2.140160        -0.623875        -0.522130
 H        -2.881218        -0.857235         0.045552
 H        -2.261413         1.238243         1.680721
 H        -3.911950         1.766168        -0.450345
 H        -4.295117        -1.117258        -1.613022
 H        -5.571287        -0.069909        -1.031298
 H        -2.349720         0.404579        -2.823922
 H        -2.997395         2.147719        -2.925124
