19
Iteration:  2898charge 0 multiplicity 1
 C         1.310951         0.392906         0.713235
 C         0.142519        -0.256192         0.077053
 C        -0.970640        -0.654160        -0.238451
 C        -2.448697        -0.539307        -0.266085
 O        -2.968029        -0.149035         1.002988
 C        -2.951986         0.771132        -1.247262
 C        -4.417697         1.248127        -1.007693
 O        -4.655346         1.183903        -2.425306
 C        -3.348699         0.642526        -2.718390
 H         1.056568         1.350094         1.034275
 H         1.546542        -0.300953         1.579976
 H         2.268911         0.724970         0.114558
 H        -2.937763        -1.517225        -0.591503
 H        -2.375562        -0.320425         1.718656
 H        -2.320082         1.559607        -0.981316
 H        -5.255367         0.740834        -0.398853
 H        -4.467404         2.276408        -0.596507
 H        -3.471020        -0.438419        -2.906512
 H        -2.576671         1.257215        -3.504712
