19
Iteration:  3294
 C         1.285376        -0.153004        -0.646209
 C        -0.070632        -0.056441        -0.063015
 C        -1.190337         0.038569         0.516663
 C        -2.750782        -0.154490         0.303535
 O        -3.437371        -0.160116         1.524287
 C        -3.237503         0.828459        -0.774444
 C        -4.586402         0.607959        -1.618183
 O        -3.857113         0.994017        -2.853167
 C        -2.586719         0.932221        -2.161459
 H         1.684094        -1.117964        -0.910042
 H         1.379024         0.389592        -1.622017
 H         2.130486         0.381026        -0.126085
 H        -2.756186        -1.268930        -0.213781
 H        -3.255838         0.686831         1.909352
 H        -3.248136         1.776883        -0.140058
 H        -4.832803        -0.442354        -1.750452
 H        -5.439391         1.305651        -1.415135
 H        -2.189057        -0.144718        -2.415394
 H        -1.829629         1.733962        -2.244775
