19
Iteration:   641charge 0 multiplicity 1
 C         1.480449         0.079722         0.644247
 C         0.106723        -0.141685         0.295116
 C        -0.990027        -0.196575        -0.218498
 C        -2.496507        -0.111513        -0.264789
 O        -3.014466         0.135573         1.059377
 C        -2.941148         1.031209        -1.285662
 C        -4.508936         1.198854        -1.157040
 O        -4.719304         0.337563        -2.391329
 C        -3.255145         0.511063        -2.693392
 H         2.005573        -0.622191         1.419762
 H         2.044389         0.220680        -0.220174
 H         1.519992         1.034991         1.215202
 H        -3.062092        -0.958237        -0.599560
 H        -2.319660        -0.274944         1.611667
 H        -2.227953         1.922147        -1.295964
 H        -4.964602         0.762801        -0.260155
 H        -4.882974         2.183058        -1.385291
 H        -2.782437        -0.414152        -3.037312
 H        -3.058949         1.266275        -3.504789
