19
Iteration:  3368charge 0 multiplicity 1
 C         1.346877         0.072607        -0.075353
 C        -0.059865        -0.151742        -0.112082
 C        -1.222614        -0.419654         0.160365
 C        -2.666184        -0.295786         0.170095
 O        -3.195010         0.003349         1.460511
 C        -3.103975         0.781801        -0.903070
 C        -4.662827         0.812289        -1.445874
 O        -4.139737         1.099747        -2.822607
 C        -2.780499         0.788816        -2.363449
 H         1.981891        -0.729360         0.534716
 H         1.821180         0.117807        -1.059684
 H         1.705993         1.006455         0.233782
 H        -3.026976        -1.180395        -0.201952
 H        -2.428572         0.469635         1.896999
 H        -2.917180         1.730564        -0.456340
 H        -5.087617        -0.185715        -1.277204
 H        -5.203706         1.668368        -1.039459
 H        -2.280880        -0.048970        -2.790617
 H        -2.138429         1.599688        -2.736886
