19
Iteration:  1134
 C         0.614500        -0.893077        -1.146175
 C        -0.433404        -0.350521        -0.340759
 C        -1.329625         0.065441         0.363840
 C        -2.770799         0.093995         0.708821
 O        -3.366722         1.175340         1.544800
 C        -3.399426         0.197739        -0.738326
 C        -2.935537        -0.193811        -2.165086
 O        -3.291399         1.075997        -2.764209
 C        -3.553966         1.580955        -1.342841
 H         1.612523        -0.302816        -1.309697
 H         1.027490        -1.726152        -0.563937
 H         0.406144        -1.282267        -2.155013
 H        -3.144197        -0.863000         1.193735
 H        -3.069137         0.850487         2.436272
 H        -4.474001        -0.152116        -0.735986
 H        -1.954912        -0.426282        -2.307040
 H        -3.525056        -1.067309        -2.429910
 H        -2.776988         2.220187        -0.936906
 H        -4.561748         1.930941        -1.266843
