19
Iteration:  1310
 C         1.220225        -0.383430        -0.142765
 C        -0.208583        -0.336896        -0.213717
 C        -1.453769        -0.356874        -0.230490
 C        -2.765230        -0.144449         0.300838
 O        -2.649823         0.742731         1.451902
 C        -3.782937         0.587353        -0.688113
 C        -4.213759        -0.058465        -2.020929
 O        -3.492604         0.869122        -2.841250
 C        -3.282541         1.744647        -1.646474
 H         1.554490         0.619979        -0.673528
 H         1.591017        -0.459478         0.848447
 H         1.729252        -1.192910        -0.753820
 H        -3.279599        -1.070455         0.579750
 H        -2.036357         0.262968         2.075169
 H        -4.708478         0.830641        -0.037873
 H        -3.875486        -1.153890        -2.155824
 H        -5.343014         0.095542        -2.245988
 H        -2.296686         2.210371        -1.519657
 H        -3.897716         2.621975        -1.719422
