19
Iteration:  4121
 C         1.613948        -0.036041         0.398641
 C         0.107570        -0.139397         0.151972
 C        -1.054951        -0.342876        -0.143470
 C        -2.477429        -0.240909        -0.249662
 O        -3.228489        -0.441359         0.946827
 C        -3.048147         1.115247        -0.932719
 C        -4.675525         1.087123        -1.147665
 O        -4.455896         0.782634        -2.494246
 C        -3.079035         1.138072        -2.476497
 H         1.882183        -0.278207         1.509575
 H         2.106787        -0.887119        -0.222002
 H         1.946989         0.933031         0.087870
 H        -2.882746        -1.011302        -1.102931
 H        -2.575207        -0.872209         1.498324
 H        -2.724570         1.929050        -0.295373
 H        -5.316638         0.386182        -0.696501
 H        -5.274918         2.005858        -0.909628
 H        -2.459650         0.366838        -2.979410
 H        -3.107858         2.137309        -2.870211
