19
Iteration:  2263charge 0 multiplicity 1
 C         1.500240        -0.374233         0.602781
 C         0.157358         0.081504         0.145952
 C        -1.034286         0.385848         0.000328
 C        -2.348383        -0.041104        -0.221003
 O        -2.987087        -0.221688         1.075858
 C        -3.118607         0.889531        -1.146354
 C        -4.637560         1.227827        -1.207193
 O        -4.688342         0.693424        -2.603291
 C        -3.215227         0.426094        -2.604436
 H         2.059896         0.439335         0.944407
 H         1.552488        -0.932516         1.592802
 H         1.978670        -0.820141        -0.269982
 H        -2.268581        -1.023473        -0.854882
 H        -2.313858        -0.324711         1.747552
 H        -2.542757         1.812969        -1.171808
 H        -5.302965         0.679690        -0.585350
 H        -4.746932         2.317140        -1.225127
 H        -3.227221        -0.702751        -2.744803
 H        -2.748751         1.023240        -3.366608
