19
Iteration:  2306
 C         1.619792        -0.063200         0.588636
 C         0.231100        -0.014991         0.319662
 C        -0.937253        -0.177587        -0.014096
 C        -2.452865        -0.146125        -0.272834
 O        -3.076928        -0.123648         1.045309
 C        -3.050009         1.009748        -1.195403
 C        -4.616649         1.222517        -1.209679
 O        -4.742751         0.797504        -2.577782
 C        -3.275405         0.433099        -2.645339
 H         2.210708         0.807753         0.431706
 H         1.811373        -0.346515         1.735612
 H         2.039166        -0.887570        -0.068464
 H        -2.739646        -1.063566        -0.645697
 H        -2.442147        -0.670274         1.547811
 H        -2.591152         1.978018        -1.178659
 H        -5.236905         0.701230        -0.466837
 H        -4.927200         2.277530        -1.172190
 H        -3.119367        -0.699521        -2.718478
 H        -2.839156         1.119577        -3.328979
