19
Iteration:  2847
 C         1.462602         0.290569         0.513248
 C         0.096082        -0.172598         0.298368
 C        -1.017883        -0.493950        -0.119967
 C        -2.468121        -0.398813        -0.317574
 O        -3.095182        -0.158011         0.950475
 C        -2.959435         0.798538        -1.157733
 C        -4.412915         1.046350        -1.039486
 O        -4.587030         1.295387        -2.477840
 C        -3.312280         0.552505        -2.620511
 H         1.558705         1.239117         1.185550
 H         2.204333        -0.480417         0.778491
 H         1.768900         0.693117        -0.404674
 H        -2.905903        -1.289763        -0.798203
 H        -2.882891        -0.929558         1.502264
 H        -2.233289         1.664755        -0.953990
 H        -4.883071         0.213435        -0.555838
 H        -4.850484         1.845292        -0.419829
 H        -3.513807        -0.509168        -2.842339
 H        -2.721914         1.048772        -3.262696
