19
Iteration:   766charge 0 multiplicity 1
 C         1.422774         0.187470        -0.397368
 C         0.056696        -0.103137         0.151777
 C        -1.158141        -0.195122         0.308910
 C        -2.726520        -0.174803         0.160504
 O        -3.381945         0.044820         1.458765
 C        -3.199385         0.950761        -0.872204
 C        -4.589051         0.911963        -1.460688
 O        -4.103616         0.738112        -2.832255
 C        -2.700117         0.537959        -2.339332
 H         2.144566         0.015867         0.298689
 H         1.774578        -0.576545        -1.187727
 H         1.576638         1.190446        -0.795325
 H        -3.003087        -1.140228        -0.147671
 H        -2.919279        -0.681465         1.882192
 H        -2.910032         1.901956        -0.443806
 H        -5.232739         0.109171        -1.082278
 H        -5.172563         1.820126        -1.387292
 H        -2.518575        -0.551076        -2.430829
 H        -1.962575         1.165000        -2.863191
