19
Iteration:  3469charge 0 multiplicity 1
 C         1.512650        -0.091230         0.604010
 C         0.193628        -0.145537         0.025307
 C        -1.004955        -0.060575        -0.124357
 C        -2.519396        -0.268952        -0.190703
 O        -3.132318        -0.034797         1.062839
 C        -3.033482         0.847791        -1.095017
 C        -4.537136         1.116627        -1.127313
 O        -4.609232         0.821003        -2.550953
 C        -3.182615         0.708867        -2.657457
 H         1.494632        -0.220213         1.781855
 H         2.251040        -0.839837         0.176987
 H         2.105249         0.849295         0.504480
 H        -2.833338        -1.281674        -0.657936
 H        -2.892626        -0.745812         1.658905
 H        -2.407277         1.649000        -0.923211
 H        -5.229657         0.487355        -0.562836
 H        -4.781579         2.091811        -0.656972
 H        -2.941866        -0.274674        -3.080087
 H        -2.766424         1.582552        -3.183234
