19
Iteration:   874charge 0 multiplicity 1
 C         1.300565        -0.247427        -0.468765
 C        -0.052913        -0.183542         0.052673
 C        -1.285807         0.080252         0.127762
 C        -2.691318        -0.024242         0.245730
 O        -3.044922         0.260216         1.731888
 C        -3.517902         0.782580        -0.807503
 C        -4.444616         0.059178        -1.774542
 O        -3.908449         0.864775        -2.899712
 C        -2.765985         1.266940        -2.098802
 H         1.870059         0.218076         0.379367
 H         1.704293        -1.302707        -0.669743
 H         1.409997         0.419395        -1.361189
 H        -2.923579        -1.152962         0.019238
 H        -4.004859         0.181046         1.811745
 H        -4.030920         1.657402        -0.291776
 H        -4.176676        -1.009664        -2.008982
 H        -5.464097         0.202095        -1.504357
 H        -1.810025         0.793929        -2.387909
 H        -2.521477         2.361242        -2.130762
