19
Iteration:  1668
 C         1.583001        -0.135454         0.830677
 C         0.241060        -0.185369         0.294111
 C        -0.917628        -0.031891        -0.192517
 C        -2.355037        -0.085463        -0.306806
 O        -3.089139         0.065061         0.969631
 C        -2.989704         0.950425        -1.350267
 C        -4.485408         1.120742        -1.074025
 O        -4.825984         0.593373        -2.454431
 C        -3.400851         0.501889        -2.750604
 H         2.346589        -0.340224         0.157029
 H         1.740031         0.957759         1.143576
 H         1.651023        -0.657401         1.779235
 H        -2.704115        -1.068465        -0.768431
 H        -2.519673         0.753506         1.375735
 H        -2.455233         1.924182        -1.185002
 H        -4.846927         0.494310        -0.230395
 H        -5.082835         2.128465        -1.037708
 H        -3.122177        -0.491506        -2.908054
 H        -3.193514         1.293039        -3.512480
