19
Iteration:  2830
 C         1.584198         0.223321         0.446736
 C         0.176165        -0.054212         0.230428
 C        -0.963745        -0.435671        -0.040656
 C        -2.440557        -0.418180        -0.244290
 O        -3.228955        -0.252870         1.038686
 C        -2.968154         0.766508        -1.127610
 C        -4.600463         1.129439        -1.068188
 O        -4.548827         1.256401        -2.529508
 C        -3.276083         0.607726        -2.652789
 H         1.727518         0.824406         1.315480
 H         2.023708        -0.757685         0.686873
 H         2.138305         0.847799        -0.363720
 H        -2.778486        -1.365511        -0.747797
 H        -2.761260        -0.793163         1.717324
 H        -2.466492         1.701240        -0.968463
 H        -5.305039         0.254774        -0.872906
 H        -4.849229         2.017828        -0.427862
 H        -3.442192        -0.471746        -2.879697
 H        -2.698651         1.022740        -3.659043
