19
Iteration:  1909charge 0 multiplicity 1
 C         1.279795        -0.023736        -0.337330
 C        -0.168082        -0.089650        -0.235148
 C        -1.382889        -0.145907         0.047218
 C        -2.795233        -0.009658         0.342312
 O        -3.175673         0.356739         1.691272
 C        -3.196333         0.933986        -0.846711
 C        -4.507472         0.988427        -1.586226
 O        -3.946866         0.362699        -2.798609
 C        -2.647865         0.457244        -2.218295
 H         1.763228        -0.941328        -0.446101
 H         1.588513         0.326726        -1.396533
 H         1.624471         0.698675         0.425262
 H        -3.264203        -1.081490        -0.035230
 H        -2.465783        -0.004033         2.283391
 H        -2.780585         1.949319        -0.623610
 H        -5.437270         0.662650        -1.184983
 H        -4.692255         2.057313        -1.949782
 H        -2.123948        -0.470736        -2.144547
 H        -1.949586         1.116268        -2.712858
