19
Iteration:   771charge 0 multiplicity 1
 C         1.433714         0.140346        -0.428954
 C         0.070038        -0.099691         0.130668
 C        -1.198132        -0.140048         0.362630
 C        -2.717453        -0.130712         0.158101
 O        -3.376479         0.041554         1.472364
 C        -3.179385         0.929678        -0.865176
 C        -4.624030         0.840748        -1.447016
 O        -4.046956         0.772231        -2.840310
 C        -2.731641         0.555983        -2.359846
 H         2.283658         0.006971         0.403826
 H         1.733762        -0.512609        -1.206021
 H         1.439959         1.155488        -0.890910
 H        -3.051524        -1.170634        -0.308084
 H        -3.108987        -0.789098         1.983228
 H        -2.950857         1.912170        -0.391767
 H        -5.274913        -0.033047        -1.178656
 H        -5.186095         1.820561        -1.368224
 H        -2.458699        -0.527940        -2.324783
 H        -2.002233         1.125526        -2.949630
