19
Iteration:  1550
 C         1.359635         0.375309         0.108681
 C        -0.012173        -0.099353        -0.077832
 C        -1.195107        -0.522181         0.060249
 C        -2.694084        -0.306700         0.015253
 O        -3.273402        -0.204030         1.299276
 C        -2.918044         0.943569        -0.924637
 C        -4.421766         1.341798        -1.374224
 O        -4.339459         0.771131        -2.656698
 C        -2.924909         0.437222        -2.413103
 H         1.760984         0.599872        -0.944465
 H         1.626770         1.346743         0.696365
 H         2.080832        -0.394813         0.521778
 H        -3.161750        -1.253051        -0.298065
 H        -2.687147         0.257911         1.895447
 H        -2.162671         1.738359        -0.686694
 H        -5.258189         0.998010        -0.727193
 H        -4.366527         2.414317        -1.495418
 H        -2.784234        -0.668912        -2.378447
 H        -2.290668         0.990509        -3.122239
