19
Iteration:  2491charge 0 multiplicity 1
 C         1.464292         0.010934        -0.206658
 C        -0.009549         0.029925         0.105810
 C        -1.236461        -0.044196         0.136680
 C        -2.646919        -0.234632         0.070711
 O        -3.282821        -0.080598         1.328795
 C        -3.176464         0.787294        -0.863459
 C        -4.618537         0.704836        -1.333640
 O        -4.136647         0.990128        -2.723779
 C        -2.753491         0.748513        -2.373851
 H         1.514551        -0.426348        -1.141747
 H         1.846365         1.065935        -0.160328
 H         2.139220        -0.569746         0.490057
 H        -2.973497        -1.211391        -0.288007
 H        -2.814037        -0.710532         1.890748
 H        -2.914974         1.779754        -0.520897
 H        -5.217972        -0.282668        -1.429602
 H        -5.264661         1.562301        -1.055702
 H        -2.281670        -0.312602        -2.677086
 H        -2.311881         1.688575        -2.732759
