19
Iteration:   540charge 0 multiplicity 1
 C         1.609819        -0.378292         0.709241
 C         0.181140         0.073304         0.389061
 C        -0.896229         0.328145        -0.153670
 C        -2.392585         0.129475        -0.268573
 O        -2.820968         0.176818         1.065597
 C        -3.254169         0.946512        -1.286297
 C        -4.733881         0.770605        -1.173689
 O        -4.741989         0.673299        -2.642220
 C        -3.316763         0.299122        -2.642718
 H         1.848545        -1.496745         0.471708
 H         2.372613         0.294029         0.254387
 H         1.800982        -0.274172         1.806119
 H        -2.509836        -0.920436        -0.484985
 H        -2.344165         0.973351         1.442381
 H        -2.862675         1.953287        -1.199299
 H        -5.056807        -0.209483        -0.750798
 H        -5.355520         1.566371        -0.822069
 H        -3.268167        -0.806897        -2.383402
 H        -2.704741         0.466667        -3.526122
