19
Iteration:  4316charge 0 multiplicity 1
 C         1.637004        -0.008786         0.514795
 C         0.148625        -0.098918         0.229844
 C        -0.999905        -0.078259        -0.080456
 C        -2.432770        -0.378516        -0.284905
 O        -3.064052        -0.698066         1.014063
 C        -3.072171         0.816671        -1.113465
 C        -4.661577         0.960332        -1.093576
 O        -4.596721         1.441658        -2.482965
 C        -3.251161         0.910727        -2.650237
 H         2.000826         1.029835         0.256809
 H         1.869551        -0.057680         1.606559
 H         2.051588        -0.738427        -0.047415
 H        -2.661397        -1.379219        -0.898020
 H        -3.149755         0.194536         1.388732
 H        -2.652104         1.669765        -0.628154
 H        -5.099951        -0.042640        -1.106926
 H        -5.195533         1.632005        -0.473019
 H        -3.265682        -0.120089        -3.222532
 H        -2.458903         1.592408        -3.166037
