19
Iteration:  2093charge 0 multiplicity 1
 C         1.367134        -0.152495         0.081834
 C        -0.068024        -0.067120        -0.169151
 C        -1.262593        -0.076788        -0.183645
 C        -2.692856        -0.037694         0.247908
 O        -2.835630         0.444927         1.614339
 C        -3.349632         0.881243        -0.907691
 C        -4.720571         0.663051        -1.557578
 O        -4.141134         0.703895        -2.878026
 C        -2.828838         0.484612        -2.315568
 H         1.483094        -0.265685         1.200451
 H         1.826928        -1.012456        -0.319268
 H         1.764950         0.808702        -0.258800
 H        -3.072985        -1.181665         0.209768
 H        -1.936493         0.227097         1.998878
 H        -3.183728         1.951781        -0.609238
 H        -5.342466        -0.160035        -1.298523
 H        -5.446472         1.463352        -1.494599
 H        -2.443099        -0.581963        -2.375470
 H        -2.064972         1.204360        -2.717329
