19
Iteration:   571
 C         1.565081        -0.382011         0.777829
 C         0.301448         0.097007         0.312069
 C        -0.815835         0.378360        -0.077048
 C        -2.275819         0.156145        -0.225455
 O        -3.033334         0.148152         0.985041
 C        -3.137893         0.925477        -1.402066
 C        -4.596092         0.869763        -1.046760
 O        -4.850648         0.552849        -2.578915
 C        -3.442186         0.356405        -2.755244
 H         1.678825        -1.463078         0.891096
 H         2.458707         0.040515         0.130968
 H         1.676917        -0.000116         1.838382
 H        -2.250385        -0.911794        -0.589064
 H        -2.345087        -0.002321         1.657637
 H        -2.712150         1.850281        -1.324549
 H        -4.876943        -0.066557        -0.518298
 H        -5.135877         1.752421        -0.709447
 H        -3.258943        -0.771099        -2.736076
 H        -3.001892         0.716859        -3.677714
