19
Iteration:  4260charge 0 multiplicity 1
 C         1.540315         0.125626         0.622856
 C         0.165453        -0.062992         0.152732
 C        -0.991205        -0.384640        -0.102613
 C        -2.403787        -0.344385        -0.368785
 O        -3.212869        -0.586716         0.844374
 C        -2.886373         0.902687        -1.113692
 C        -4.436763         1.074672        -1.017597
 O        -4.699351         1.324193        -2.421567
 C        -3.332771         0.821174        -2.603631
 H         1.710189         1.183588         0.904743
 H         1.669384        -0.597462         1.452754
 H         2.249891        -0.053729        -0.131579
 H        -2.673447        -1.240349        -1.102012
 H        -2.594202        -0.618387         1.579944
 H        -2.418074         1.789888        -0.650992
 H        -4.972072         0.133396        -0.570715
 H        -4.804849         1.901851        -0.477291
 H        -3.456405        -0.282887        -2.888560
 H        -2.698267         1.555708        -3.250647
