19
Iteration:   486
 C         1.486039        -0.075063         0.502278
 C         0.166951        -0.074624        -0.058072
 C        -1.048103        -0.179176         0.014416
 C        -2.529311        -0.076517        -0.061565
 O        -2.942538         0.446299         1.242150
 C        -3.124792         0.800615        -1.088841
 C        -4.680052         0.733585        -1.205158
 O        -4.574889         0.641605        -2.719727
 C        -3.115985         0.504407        -2.620748
 H         2.110533        -0.840862        -0.043120
 H         2.004542         0.789928         0.379386
 H         1.477050        -0.211321         1.575318
 H        -2.891731        -1.099846        -0.150574
 H        -2.632004         1.379201         1.281848
 H        -2.650261         1.841573        -1.028938
 H        -5.209430        -0.137450        -0.759797
 H        -5.254836         1.601919        -0.963109
 H        -2.779518        -0.452503        -2.956472
 H        -2.469409         1.283642        -3.013933
