19
Iteration:  4641
 C         1.468825         0.187292        -0.143282
 C         0.000798        -0.051290        -0.049687
 C        -1.194098        -0.349082        -0.021143
 C        -2.699397        -0.390519        -0.011772
 O        -3.253916        -0.494648         1.307328
 C        -3.290945         0.782843        -0.761728
 C        -4.661231         0.732811        -1.458417
 O        -4.040021         1.272316        -2.721563
 C        -2.726552         1.211977        -2.050629
 H         2.048240        -0.671511         0.212123
 H         1.683656         0.269666        -1.215894
 H         1.899856         1.071698         0.354392
 H        -2.930813        -1.263743        -0.525689
 H        -3.090867        -1.401992         1.563185
 H        -3.462478         1.515909        -0.046205
 H        -5.190622        -0.389482        -1.728596
 H        -5.459585         1.365241        -0.942445
 H        -2.049524         0.436219        -2.486500
 H        -2.223882         2.298273        -2.119808
