19
Iteration:  2828
 C         1.594677         0.212451         0.445030
 C         0.181893        -0.048197         0.211083
 C        -0.960594        -0.415008        -0.028471
 C        -2.442638        -0.408236        -0.223592
 O        -3.234939        -0.266501         1.039695
 C        -2.979876         0.750987        -1.122284
 C        -4.609647         1.127721        -1.078504
 O        -4.546070         1.260184        -2.540494
 C        -3.265325         0.605410        -2.663033
 H         1.783056         0.847595         1.340568
 H         2.007716        -0.749745         0.612663
 H         2.105540         0.789031        -0.291744
 H        -2.792265        -1.370287        -0.757200
 H        -2.744992        -0.761045         1.690936
 H        -2.423630         1.725394        -0.906105
 H        -5.327447         0.315030        -0.804389
 H        -4.867456         2.008684        -0.408225
 H        -3.437854        -0.496241        -2.874054
 H        -2.748195         1.054740        -3.603364
