19
Iteration:  2064charge 0 multiplicity 1
 C         1.406723        -0.180134        -0.222824
 C        -0.029295        -0.054029        -0.058928
 C        -1.196033        -0.071616         0.184028
 C        -2.734421        -0.028105         0.271336
 O        -3.076939         0.383918         1.587484
 C        -3.304581         0.933310        -0.942728
 C        -4.654466         0.672816        -1.590644
 O        -4.114006         0.692533        -2.891733
 C        -2.774498         0.458721        -2.271867
 H         1.901627        -0.377694         0.675587
 H         1.765104        -0.827936        -1.132827
 H         1.759602         0.873614        -0.502996
 H        -2.992089        -1.007089         0.140086
 H        -2.277121         0.784450         1.985278
 H        -3.218906         1.989826        -0.661980
 H        -5.304683        -0.259800        -1.256448
 H        -5.374267         1.534374        -1.477531
 H        -2.493161        -0.583457        -2.175218
 H        -1.984746         1.045130        -2.666925
