19
Iteration:  3903
 C         1.288710        -0.044753        -0.394097
 C        -0.142578        -0.148583        -0.204530
 C        -1.307686        -0.337250         0.034533
 C        -2.798849        -0.182180         0.227068
 O        -3.149621         0.071767         1.620983
 C        -3.440032         0.848469        -0.696837
 C        -4.541177         0.460984        -1.733600
 O        -3.758174         0.949145        -2.838007
 C        -2.651769         1.219319        -1.987308
 H         1.654331        -0.761353        -1.067363
 H         1.511128         0.980048        -0.653258
 H         1.809976        -0.477203         0.441385
 H        -3.283866        -1.192940        -0.038879
 H        -2.602149        -0.548028         2.130857
 H        -3.850774         1.755125        -0.075217
 H        -4.871334        -0.655379        -1.700651
 H        -5.398436         1.152162        -1.675071
 H        -1.795153         0.582858        -2.283708
 H        -2.230946         2.204341        -2.068249
