19
Iteration:   463charge 0 multiplicity 1
 C         1.495634         0.081808         0.276032
 C         0.076786        -0.232215         0.112793
 C        -1.131120        -0.361048        -0.099817
 C        -2.644873        -0.115024         0.036275
 O        -3.053390         0.513500         1.266718
 C        -3.088898         0.916510        -1.032048
 C        -4.597029         0.730952        -1.216157
 O        -4.437451         0.614091        -2.716722
 C        -3.017968         0.530083        -2.606422
 H         2.127362        -0.491611        -0.412581
 H         1.729485         1.090241         0.068646
 H         1.839999        -0.044544         1.307506
 H        -3.180316        -1.053052        -0.082258
 H        -2.269946         1.016802         1.596742
 H        -2.807061         1.939263        -0.694592
 H        -5.058441        -0.181515        -0.784777
 H        -5.232767         1.566740        -0.968571
 H        -2.626698        -0.484591        -2.669143
 H        -2.497333         1.145605        -3.339150
