19
Iteration:  4336
 C         1.595943        -0.036068         0.456008
 C         0.206829        -0.025403         0.186035
 C        -1.007670        -0.237760         0.010432
 C        -2.417307        -0.285586        -0.245900
 O        -3.006398        -0.686011         1.016655
 C        -3.200173         0.841951        -1.017088
 C        -4.709577         0.901120        -1.209378
 O        -4.569667         1.435800        -2.566304
 C        -3.189780         0.944866        -2.575816
 H         2.094670         0.821972         0.038856
 H         1.663854         0.101795         1.529205
 H         2.050923        -0.965034         0.063237
 H        -2.698140        -1.235873        -0.886192
 H        -2.823135         0.081251         1.629926
 H        -2.936283         1.837090        -0.492617
 H        -5.179110        -0.008303        -1.246884
 H        -5.141612         1.499278        -0.508284
 H        -3.239503         0.003215        -3.051781
 H        -2.627799         1.786593        -3.064377
