19
Iteration:   172
 C         1.489007        -0.368882         0.108598
 C         0.023639        -0.171491         0.101736
 C        -1.168753        -0.136100         0.074135
 C        -2.577139         0.006075         0.094120
 O        -2.865986         0.663778         1.443626
 C        -3.408708         0.806084        -0.907979
 C        -4.572731         0.108667        -1.607697
 O        -4.296820         0.662891        -2.893982
 C        -3.078700         1.205271        -2.371442
 H         2.047513         0.571163         0.176145
 H         1.727172        -0.875363         1.092454
 H         1.782151        -0.804059        -0.853927
 H        -2.952285        -1.059649         0.004319
 H        -1.990176         0.855630         1.898661
 H        -3.723598         1.660585        -0.222269
 H        -4.697793        -1.016232        -1.702623
 H        -5.647828         0.361805        -1.138121
 H        -2.193027         0.592450        -2.812013
 H        -2.936235         2.265769        -2.663248
