19
Iteration:  4720
 C         1.491563         0.187415         0.235386
 C         0.096225        -0.057090        -0.031986
 C        -1.084491        -0.386567        -0.123115
 C        -2.581134        -0.472563        -0.189540
 O        -3.141815        -0.439980         1.175509
 C        -3.158298         0.772112        -0.842115
 C        -4.675859         0.801241        -1.297559
 O        -4.319288         1.505351        -2.604058
 C        -2.971723         0.946744        -2.323839
 H         1.749591        -0.094152         1.315301
 H         2.325286        -0.334119        -0.344067
 H         1.648778         1.213789         0.262103
 H        -2.825194        -1.461711        -0.629705
 H        -3.421104        -1.288966         1.522429
 H        -3.142618         1.678335        -0.235854
 H        -5.007590        -0.238308        -1.405473
 H        -5.235706         1.474388        -0.596057
 H        -2.774437         0.034860        -2.933162
 H        -2.047764         1.644318        -2.756807
