19
Iteration:   658charge 0 multiplicity 1
 C         1.347691         0.243145         0.560561
 C         0.019533        -0.305498         0.174752
 C        -1.096382        -0.262096        -0.206642
 C        -2.507082        -0.126307        -0.286042
 O        -2.992094         0.101509         1.066829
 C        -2.977167         0.994961        -1.141855
 C        -4.459212         1.249361        -1.244741
 O        -4.598241         0.347682        -2.311526
 C        -3.122345         0.512429        -2.635042
 H         1.797045        -0.376115         1.296875
 H         2.001328         0.241167        -0.396465
 H         1.346732         1.247910         1.014537
 H        -2.841803        -1.162213        -0.639035
 H        -2.236230         0.384930         1.643525
 H        -2.506126         1.900381        -0.875547
 H        -5.099360         0.956213        -0.377540
 H        -4.572430         2.331441        -1.565279
 H        -2.621949        -0.452196        -2.904604
 H        -3.004187         1.204488        -3.458513
