19
Iteration:  3751
 C         1.535339        -0.147874        -0.139819
 C         0.019609         0.002387         0.036053
 C        -1.161273        -0.037611         0.155948
 C        -2.645732        -0.187513         0.126616
 O        -3.261234        -0.205363         1.400626
 C        -3.262315         0.936962        -0.826665
 C        -4.702629         0.786120        -1.453209
 O        -4.126700         1.014347        -2.830461
 C        -2.793584         0.821182        -2.359926
 H         1.749133         0.544778        -0.889091
 H         2.012198         0.031521         0.816938
 H         1.736138        -1.230962        -0.312720
 H        -2.863128        -1.178115        -0.473512
 H        -2.725401        -0.748647         1.978420
 H        -2.943487         1.907527        -0.360533
 H        -5.307152        -0.116628        -1.325212
 H        -5.381199         1.595986        -1.427496
 H        -2.551658        -0.243514        -2.487545
 H        -2.105873         1.579953        -2.631931
