19
Iteration:  2478
 C         1.487335         0.040538        -0.106177
 C         0.056511         0.087337        -0.023830
 C        -1.158052        -0.089659         0.066074
 C        -2.680086        -0.249428         0.089681
 O        -3.280955        -0.126722         1.408734
 C        -3.231890         0.785504        -0.890435
 C        -4.668536         0.805110        -1.422000
 O        -4.162875         1.029874        -2.742498
 C        -2.784312         0.666840        -2.331955
 H         1.908132        -0.239975        -1.069164
 H         1.920619         0.986646        -0.012759
 H         1.821898        -0.715588         0.686269
 H        -2.794403        -1.195150        -0.333306
 H        -2.761185        -0.677842         2.039275
 H        -3.019566         1.770419        -0.469604
 H        -5.169096        -0.169903        -1.139264
 H        -5.312584         1.627556        -1.022304
 H        -2.594444        -0.443632        -2.808835
 H        -1.868562         1.222838        -2.629502
