19
Iteration:  4197charge 0 multiplicity 1
 C         1.495604         0.198903         0.623682
 C         0.097063        -0.145220         0.169623
 C        -0.965509        -0.459309        -0.279226
 C        -2.496902        -0.400214        -0.389354
 O        -3.107235        -0.545672         0.886386
 C        -2.966054         0.977206        -1.030512
 C        -4.532989         1.316506        -0.978473
 O        -4.631083         1.066574        -2.411067
 C        -3.194468         0.877198        -2.603773
 H         1.485826         0.749615         1.668387
 H         2.055415        -0.722687         1.091214
 H         2.014336         0.595547        -0.228696
 H        -2.906093        -1.180476        -1.113478
 H        -2.632217        -1.306277         1.294613
 H        -2.393230         1.785758        -0.697352
 H        -5.090482         0.495190        -0.332692
 H        -4.723014         2.434859        -0.729466
 H        -3.175724        -0.095989        -3.081240
 H        -2.783895         1.678248        -3.156344
