19
Iteration:  1963
 C         1.108531        -0.096249        -0.735294
 C        -0.065947        -0.010556         0.142375
 C        -1.263671         0.025571         0.400162
 C        -2.701901        -0.032236         0.271175
 O        -3.545516         0.270865         1.427005
 C        -2.963313         0.917726        -0.853794
 C        -4.421619         0.951011        -1.409520
 O        -3.998871         0.459308        -2.712756
 C        -2.546353         0.369320        -2.282597
 H         1.755491        -0.970849        -0.523589
 H         0.788597         0.012231        -1.857766
 H         1.813175         0.764059        -0.569657
 H        -2.852894        -1.000174        -0.111902
 H        -3.021660         0.819126         2.016505
 H        -2.422978         1.862962        -0.586921
 H        -4.891057         0.161188        -0.847648
 H        -4.926128         1.891194        -1.619757
 H        -2.130489        -0.628751        -2.417140
 H        -1.871706         1.066583        -2.804581
