19
Iteration:  1169
 C         0.642060        -0.882391        -1.129425
 C        -0.331600        -0.335969        -0.136904
 C        -1.352474         0.045316         0.348543
 C        -2.836767         0.004721         0.561307
 O        -3.210075         1.014737         1.489597
 C        -3.633190         0.302990        -0.772613
 C        -2.964378        -0.150155        -1.985368
 O        -3.280324         1.035252        -2.778876
 C        -3.582979         1.639435        -1.410924
 H         1.396645        -0.029996        -1.460020
 H         1.107087        -1.674435        -0.669768
 H         0.066045        -1.280459        -2.009409
 H        -3.048789        -1.004446         1.075640
 H        -2.473227         1.598760         1.802163
 H        -4.615976        -0.140929        -0.512182
 H        -1.922763        -0.107205        -1.833387
 H        -3.325561        -1.125014        -2.305351
 H        -2.827661         2.374929        -1.162497
 H        -4.486208         2.298174        -1.501808
