19
Iteration:  4629
 C         1.382130         0.144788        -0.213866
 C        -0.006076        -0.105451        -0.066784
 C        -1.220917        -0.212634         0.009092
 C        -2.651844        -0.447427        -0.032265
 O        -3.321889        -0.485579         1.268495
 C        -3.304298         0.808722        -0.657901
 C        -4.571593         0.696649        -1.496314
 O        -4.018112         1.196518        -2.671469
 C        -2.702477         1.282165        -2.059613
 H         1.968714        -0.706205         0.063678
 H         1.605504         0.427450        -1.226657
 H         1.614259         1.040862         0.437141
 H        -2.864456        -1.306477        -0.577221
 H        -2.908608        -1.219370         1.779768
 H        -3.124594         1.568077        -0.015971
 H        -5.002718        -0.487066        -1.582981
 H        -5.393849         1.386433        -1.152359
 H        -1.923317         0.682553        -2.618902
 H        -2.343772         2.393458        -1.970539
