19
Iteration:   928
 C         1.309504        -0.170347        -0.183804
 C        -0.252097        -0.213959        -0.347660
 C        -1.403190        -0.362415        -0.111716
 C        -2.783222        -0.146592         0.356691
 O        -2.798811         0.552971         1.537637
 C        -3.538330         0.722287        -0.676625
 C        -4.324659         0.018568        -1.830877
 O        -3.687521         0.702639        -2.893008
 C        -2.980602         1.630622        -1.902908
 H         1.675724         0.384301         0.709437
 H         1.449259        -1.224650        -0.085162
 H         1.780395         0.215061        -1.095456
 H        -3.285316        -1.109621         0.364952
 H        -3.623752         0.356925         2.035046
 H        -4.190270         1.320318         0.022339
 H        -4.217351        -1.108805        -1.952740
 H        -5.377529         0.175448        -1.588808
 H        -1.905591         1.719757        -2.050145
 H        -3.534069         2.611210        -1.843157
