19
Iteration:  3019charge 0 multiplicity 1
 C         1.694806        -0.188570         0.388906
 C         0.198901        -0.109650         0.314654
 C        -0.990491         0.072379         0.105005
 C        -2.396463        -0.162683        -0.192430
 O        -3.314542        -0.272811         1.004143
 C        -3.036731         0.988636        -1.085451
 C        -4.562906         0.932442        -1.094538
 O        -4.656142         0.791053        -2.563902
 C        -3.226089         0.892966        -2.741494
 H         2.210028         0.470550        -0.192396
 H         2.025501        -0.205532         1.453343
 H         2.048190        -1.087839        -0.210600
 H        -2.495095        -1.159196        -0.786776
 H        -2.684217        -0.128296         1.739873
 H        -2.714469         1.969164        -0.871770
 H        -5.068995         0.077783        -0.650885
 H        -4.956289         1.897406        -0.776493
 H        -2.908752         0.103031        -3.395348
 H        -2.827445         1.818602        -3.214081
