19
Iteration:  3748charge 0 multiplicity 1
 C         1.536884        -0.141699        -0.123687
 C         0.039569         0.011129         0.034326
 C        -1.175752        -0.066556         0.150054
 C        -2.626096        -0.205242         0.106703
 O        -3.259109        -0.200783         1.401850
 C        -3.274355         0.961356        -0.821093
 C        -4.698705         0.804638        -1.454831
 O        -4.147231         0.998864        -2.844978
 C        -2.803056         0.821770        -2.340121
 H         1.818569         0.593723        -0.832857
 H         2.041732        -0.004640         0.825167
 H         1.713262        -1.258785        -0.276572
 H        -2.824032        -1.088310        -0.450424
 H        -2.735032        -0.813197         1.984608
 H        -2.961118         1.921135        -0.371267
 H        -5.248474        -0.052523        -1.313292
 H        -5.447114         1.602960        -1.318645
 H        -2.519495        -0.197542        -2.552498
 H        -2.034685         1.472214        -2.743101
