19
Iteration:   107charge 0 multiplicity 1
 C         1.576308        -0.535711         0.417636
 C         0.118408        -0.066201         0.114620
 C        -1.082848         0.099500        -0.118956
 C        -2.506418         0.029234         0.038488
 O        -2.812119         0.542410         1.349456
 C        -3.371078         0.808662        -0.949159
 C        -4.573131         0.107726        -1.543910
 O        -4.573732         0.804837        -2.785303
 C        -3.175216         1.072731        -2.524745
 H         1.955167         0.074689         1.210283
 H         1.642420        -1.666861         0.846178
 H         2.360131        -0.544630        -0.352079
 H        -2.819921        -1.038581         0.137750
 H        -2.312080         1.362163         1.399712
 H        -3.806662         1.739939        -0.445253
 H        -4.376070        -0.991733        -1.693880
 H        -5.634182         0.003237        -1.028652
 H        -2.399024         0.369228        -3.027698
 H        -2.982889         2.127734        -2.812155
