19
Iteration:   278
 C         1.205366        -0.095496        -0.616654
 C        -0.108524        -0.038045        -0.014838
 C        -1.251943        -0.189316         0.347071
 C        -2.796261        -0.059356         0.299620
 O        -3.330236         0.566051         1.572069
 C        -3.193460         0.857362        -0.867090
 C        -4.499231         0.438229        -1.534040
 O        -3.866356         0.534632        -2.828159
 C        -2.601604         0.796148        -2.218409
 H         1.122750         0.670045        -1.535889
 H         2.014586         0.166357        -0.031981
 H         1.510133        -1.094543        -0.965797
 H        -3.203238        -1.058484         0.134858
 H        -2.797333         0.086340         2.272300
 H        -3.102311         1.878317        -0.401759
 H        -4.729651        -0.554915        -1.113909
 H        -5.405632         0.976926        -1.483387
 H        -1.775154         0.137897        -2.430229
 H        -2.250688         1.834287        -2.606802
