19
Iteration:  2264charge 0 multiplicity 1
 C         1.506589        -0.372823         0.605506
 C         0.162313         0.077693         0.150827
 C        -1.033481         0.388637        -0.003320
 C        -2.356450        -0.043440        -0.222508
 O        -2.983896        -0.224276         1.080909
 C        -3.121043         0.891131        -1.144072
 C        -4.638325         1.229116        -1.212841
 O        -4.696809         0.698432        -2.604732
 C        -3.216700         0.421235        -2.599125
 H         2.079226         0.472576         0.940427
 H         1.554344        -0.915499         1.557634
 H         1.955156        -0.823812        -0.245963
 H        -2.292904        -1.027231        -0.905215
 H        -2.333925        -0.335488         1.757005
 H        -2.503836         1.795660        -1.160845
 H        -5.288606         0.669009        -0.572538
 H        -4.709928         2.309575        -1.270010
 H        -3.206676        -0.686682        -2.777484
 H        -2.721579         1.018955        -3.366452
