19
Iteration:  4978
 C         1.574607        -0.220232         0.434927
 C         0.111898        -0.145274         0.197947
 C        -1.001025        -0.089733        -0.261438
 C        -2.458623        -0.193959        -0.345977
 O        -3.039152        -0.346654         0.966057
 C        -3.243612         0.963402        -0.858559
 C        -4.777229         0.793139        -1.172292
 O        -4.467034         0.949864        -2.601062
 C        -3.031802         1.255118        -2.297941
 H         1.997375         0.498026        -0.264508
 H         1.689923         0.072894         1.453020
 H         1.957445        -1.225316         0.134311
 H        -2.780735        -1.130435        -0.973917
 H        -2.807921        -1.274725         1.237775
 H        -3.200851         1.850685        -0.121234
 H        -5.164001        -0.167299        -1.110506
 H        -5.397985         1.604274        -0.805484
 H        -2.245577         0.551040        -2.787962
 H        -2.753140         2.379204        -2.496252
