19
Iteration:  3023
 C         1.660466        -0.200347         0.348575
 C         0.186034        -0.111577         0.339424
 C        -0.996156         0.074207         0.111777
 C        -2.421439        -0.167383        -0.201759
 O        -3.294650        -0.253462         0.999278
 C        -3.031827         0.988452        -1.116737
 C        -4.568852         0.892786        -1.107743
 O        -4.626513         0.788866        -2.534526
 C        -3.231894         0.912712        -2.706452
 H         2.294061         0.586023        -0.199276
 H         2.007505        -0.214461         1.369159
 H         1.917084        -1.155062        -0.079598
 H        -2.426067        -1.056682        -0.758912
 H        -2.636529        -0.142553         1.698443
 H        -2.638132         2.059216        -0.881640
 H        -5.033465         0.019080        -0.640378
 H        -5.070481         1.836413        -0.887654
 H        -2.766247         0.117034        -3.338232
 H        -2.796124         1.871204        -3.247636
