19
Iteration:  4844charge 0 multiplicity 1
 C         1.517281        -0.146274         0.571785
 C         0.142048        -0.092262         0.084632
 C        -1.031507         0.035498        -0.108164
 C        -2.407049        -0.281753        -0.350203
 O        -3.133270        -0.739371         0.761110
 C        -3.043170         1.035707        -0.927362
 C        -4.562862         1.145476        -1.012413
 O        -4.640301         0.887766        -2.429003
 C        -3.165512         1.091411        -2.565198
 H         1.693102         0.584194         1.341783
 H         1.725978        -1.074792         1.056944
 H         2.374182        -0.095142        -0.189746
 H        -2.463138        -1.159800        -1.140462
 H        -2.837317        -0.265838         1.552206
 H        -2.602907         2.060170        -0.626068
 H        -5.201258         0.550592        -0.390784
 H        -4.951757         2.206394        -0.921581
 H        -2.508309         0.321931        -3.028522
 H        -2.966831         2.181679        -2.823700
