19
Iteration:   703
 C         1.220685         0.316442         0.203612
 C        -0.109004        -0.052447        -0.124926
 C        -1.183724        -0.526729        -0.100366
 C        -2.656423        -0.210267        -0.026872
 O        -3.130688         0.027864         1.335991
 C        -2.881585         0.992373        -0.978638
 C        -4.372487         1.228159        -1.264347
 O        -4.301336         0.405573        -2.515736
 C        -2.954429         0.527907        -2.523907
 H         1.407643        -0.232590         1.141356
 H         1.950259         0.045121        -0.614919
 H         1.259304         1.405491         0.397550
 H        -3.216513        -1.129230        -0.467973
 H        -2.948378         0.938433         1.649644
 H        -2.299718         1.854561        -0.768391
 H        -5.201370         0.899467        -0.589069
 H        -4.461580         2.300726        -1.620788
 H        -2.513231        -0.479479        -2.810479
 H        -2.534236         1.287695        -3.175828
