19
Iteration:  2027charge 0 multiplicity 1
 C         1.299862        -0.126633        -0.573925
 C         0.002091        -0.115034         0.104049
 C        -1.228752        -0.012275         0.369181
 C        -2.648006        -0.046446         0.264572
 O        -3.453952         0.413354         1.426888
 C        -3.069528         0.831069        -0.886003
 C        -4.480876         0.667614        -1.364895
 O        -4.082496         0.649506        -2.769656
 C        -2.647298         0.505889        -2.346223
 H         2.073049        -0.728954         0.041592
 H         1.345113        -0.640614        -1.509783
 H         1.551122         0.928869        -0.621681
 H        -3.189760        -0.988700         0.160663
 H        -3.415033         1.363425         1.480465
 H        -2.840186         1.912178        -0.687963
 H        -4.966739        -0.325693        -0.861368
 H        -5.106368         1.563982        -1.204223
 H        -2.313289        -0.544956        -2.616535
 H        -1.997886         1.166689        -3.006675
