19
Iteration:  1667charge 0 multiplicity 1
 C         1.576171        -0.117322         0.825488
 C         0.238610        -0.194369         0.295908
 C        -0.915109        -0.034013        -0.191726
 C        -2.360826        -0.087865        -0.307506
 O        -3.092482         0.068809         0.972683
 C        -2.988690         0.944391        -1.349496
 C        -4.478992         1.118486        -1.074685
 O        -4.819814         0.595382        -2.441987
 C        -3.397956         0.508128        -2.759362
 H         2.377371        -0.368152         0.134342
 H         1.689709         0.952800         1.144480
 H         1.640356        -0.665257         1.764165
 H        -2.724543        -1.111415        -0.786122
 H        -2.533484         0.745224         1.364883
 H        -2.423246         1.900782        -1.171684
 H        -4.844870         0.486530        -0.230513
 H        -5.057663         2.138041        -1.062067
 H        -3.135784        -0.503647        -2.942045
 H        -3.193004         1.296914        -3.505520
