19
Iteration:  3869charge 0 multiplicity 1
 C         1.237137        -0.010704        -0.460594
 C        -0.115122        -0.276237        -0.084621
 C        -1.280488        -0.234105         0.075659
 C        -2.737631        -0.220385         0.237568
 O        -3.206259         0.129262         1.557068
 C        -3.390074         0.810214        -0.701693
 C        -4.504112         0.464638        -1.718520
 O        -3.794688         1.026961        -2.821570
 C        -2.630960         1.119440        -2.005961
 H         1.316441        -0.270667        -1.502931
 H         1.506960         1.053238        -0.404699
 H         1.888285        -0.461031         0.237793
 H        -3.192560        -1.199903        -0.072833
 H        -2.953296        -0.665562         2.087532
 H        -3.769958         1.594457         0.021038
 H        -4.798062        -0.667656        -1.790303
 H        -5.454900         1.056201        -1.610819
 H        -1.981081         0.296947        -2.351682
 H        -2.191512         2.099814        -2.000799
