19
Iteration:  2470
 C         1.528937         0.071568        -0.035944
 C         0.044784         0.091439        -0.126279
 C        -1.142949        -0.116830         0.037020
 C        -2.608362        -0.278115         0.112780
 O        -3.271354        -0.146353         1.436554
 C        -3.230354         0.821521        -0.852939
 C        -4.683979         0.878740        -1.425893
 O        -4.176782         1.057654        -2.803710
 C        -2.840157         0.577097        -2.316845
 H         1.945589        -0.296723        -0.926211
 H         1.956424         1.098572         0.297063
 H         1.697532        -0.747034         0.702362
 H        -2.784655        -1.365217        -0.347308
 H        -2.714296        -0.643947         2.099466
 H        -3.031745         1.788801        -0.399601
 H        -5.161805        -0.164122        -1.547752
 H        -5.374228         1.672418        -1.083406
 H        -2.852453        -0.513246        -2.484215
 H        -2.040654         1.216325        -2.665174
