19
Iteration:  1294
 C         1.152193        -0.396620        -0.260943
 C        -0.251023        -0.331612        -0.170020
 C        -1.515765        -0.286708        -0.176998
 C        -2.853399        -0.074783         0.242185
 O        -2.615763         0.808994         1.387093
 C        -3.789594         0.540596        -0.715852
 C        -4.138927        -0.167170        -2.060509
 O        -3.411732         0.952359        -2.755618
 C        -3.286595         1.647212        -1.525193
 H         1.627671         0.454310        -0.529286
 H         1.496698        -0.630699         0.813191
 H         1.317971        -1.285979        -0.814887
 H        -3.070874        -1.119781         0.588503
 H        -1.767369         0.521987         1.758762
 H        -4.568768         0.811736        -0.031980
 H        -3.587791        -1.084375        -2.360367
 H        -5.208202        -0.237749        -2.277789
 H        -2.225140         1.930951        -1.385044
 H        -4.059425         2.472758        -1.388376
