19
Iteration:  2535
 C         1.394963        -0.012906        -0.465614
 C         0.116061        -0.231362         0.141847
 C        -1.101642        -0.204244         0.444555
 C        -2.593454        -0.082580         0.127970
 O        -3.529589         0.013434         1.265991
 C        -3.172388         0.970403        -0.837540
 C        -4.554970         0.499380        -1.403225
 O        -4.073237         0.739775        -2.737326
 C        -2.810916         1.189758        -2.337299
 H         1.445211        -0.830349        -1.100807
 H         1.749116         0.966200        -0.756571
 H         2.296889        -0.065712         0.240261
 H        -2.800845        -0.971179        -0.418059
 H        -3.261300        -0.553995         1.994932
 H        -3.246470         1.951047        -0.407282
 H        -4.643221        -0.610517        -1.120232
 H        -5.424902         1.093851        -1.023568
 H        -2.039339         0.327558        -2.928470
 H        -2.479199         2.258976        -2.503460
