19
Iteration:  4359
 C         1.627695        -0.047482         0.433444
 C         0.154302        -0.048282         0.115438
 C        -1.004787        -0.127640        -0.162990
 C        -2.488940        -0.342097        -0.295791
 O        -3.138154        -0.594255         1.053574
 C        -3.197483         0.900003        -0.908827
 C        -4.747718         0.810453        -1.238270
 O        -4.484777         1.361188        -2.554392
 C        -3.071131         0.992856        -2.413590
 H         2.187614         0.668487        -0.215203
 H         1.795273         0.313481         1.467470
 H         1.972459        -1.024503         0.218284
 H        -2.794335        -1.330010        -0.891705
 H        -2.427854        -0.353566         1.653427
 H        -2.781762         1.818809        -0.405889
 H        -5.021119        -0.176574        -1.223224
 H        -5.399821         1.373847        -0.723213
 H        -2.972135         0.051658        -2.895456
 H        -2.575143         1.894835        -2.856244
