19
Iteration:  2280
 C         1.575310        -0.251925         0.599080
 C         0.222934         0.034644         0.291930
 C        -0.941290         0.266460        -0.089992
 C        -2.456096        -0.109873        -0.185770
 O        -3.010138        -0.263072         1.111361
 C        -3.102307         0.951111        -1.151506
 C        -4.580022         1.279218        -1.306386
 O        -4.745419         0.729500        -2.638299
 C        -3.314003         0.402858        -2.609376
 H         2.318977         0.619201         0.696042
 H         1.561087        -0.786424         1.585062
 H         2.054961        -0.951439        -0.150384
 H        -2.490522        -1.148586        -0.531926
 H        -2.195977        -0.536799         1.558707
 H        -2.610063         1.950776        -1.103551
 H        -5.324750         0.854721        -0.546870
 H        -4.904428         2.345495        -1.200217
 H        -3.077277        -0.660997        -2.676245
 H        -2.823513         1.140854        -3.308996
