19
Iteration:  3101
 C         1.500088        -0.275410         0.211669
 C         0.068351        -0.200451        -0.204601
 C        -1.127904         0.041364         0.007573
 C        -2.540892        -0.086162        -0.017177
 O        -3.044454        -0.012056         1.335723
 C        -3.332372         0.968857        -0.817045
 C        -4.755722         0.778592        -1.438238
 O        -4.214182         0.538643        -2.743800
 C        -2.957002         1.181614        -2.326590
 H         2.189770         0.133128        -0.497859
 H         1.706172         0.436315         0.958933
 H         1.757252        -1.180377         0.604892
 H        -2.636114        -1.121158        -0.446233
 H        -2.800835        -0.893609         1.601714
 H        -3.249645         1.959488        -0.274668
 H        -5.474793        -0.024250        -1.335154
 H        -5.323938         1.686779        -1.258539
 H        -2.078668         0.569585        -2.596859
 H        -2.914930         2.261261        -2.743753
