19
Iteration:  3922
 C         1.251098        -0.116189        -0.323545
 C        -0.177480        -0.141953        -0.233206
 C        -1.380500        -0.186567         0.063314
 C        -2.760446        -0.330391         0.223653
 O        -3.111601         0.072433         1.532839
 C        -3.345654         0.869764        -0.744065
 C        -4.554779         0.472643        -1.637387
 O        -3.790922         0.893683        -2.858264
 C        -2.646056         1.301481        -1.993451
 H         1.559307        -0.984136        -1.012843
 H         1.495130         0.886054        -0.707071
 H         1.633083        -0.234986         0.662176
 H        -3.238804        -1.286378        -0.157579
 H        -2.434452        -0.370089         2.103925
 H        -3.585619         1.541725         0.041545
 H        -4.621713        -0.551531        -1.690917
 H        -5.497946         1.015363        -1.484532
 H        -1.671527         0.787364        -2.361599
 H        -2.534839         2.477095        -1.974323
