19
Iteration:   108
 C         1.579133        -0.534901         0.416677
 C         0.118409        -0.073380         0.113811
 C        -1.086680         0.093013        -0.117008
 C        -2.500078         0.035302         0.049026
 O        -2.816621         0.542089         1.339854
 C        -3.371595         0.816134        -0.945955
 C        -4.572050         0.106276        -1.541067
 O        -4.578680         0.800923        -2.789158
 C        -3.173888         1.075313        -2.521474
 H         1.912875         0.093504         1.164387
 H         1.659252        -1.672756         0.860444
 H         2.370636        -0.545151        -0.347073
 H        -2.809850        -1.022955         0.129060
 H        -2.303040         1.377064         1.417000
 H        -3.810480         1.735959        -0.457873
 H        -4.338494        -0.962396        -1.723604
 H        -5.605945        -0.015905        -1.041798
 H        -2.421009         0.379811        -3.020364
 H        -2.963157         2.113608        -2.771109
