19
Iteration:  2243
 C         1.506556        -0.396367         0.566498
 C         0.217728         0.116555         0.152972
 C        -0.950050         0.313642         0.015056
 C        -2.394595        -0.013546        -0.210147
 O        -3.101625        -0.120295         1.031226
 C        -3.049231         1.021184        -1.177297
 C        -4.620354         1.038535        -1.167591
 O        -4.682077         0.698882        -2.564335
 C        -3.236244         0.431485        -2.611776
 H         2.105344         0.311730         1.187808
 H         1.214108        -1.174895         1.228497
 H         2.000260        -0.830009        -0.269324
 H        -2.492359        -0.963387        -0.886094
 H        -2.490003        -0.158711         1.814158
 H        -2.449280         1.926560        -1.052042
 H        -4.999577         0.241510        -0.522909
 H        -4.993772         2.051714        -1.134671
 H        -2.977920        -0.632582        -2.719029
 H        -2.787147         1.001477        -3.461972
