19
Iteration:  3394charge 0 multiplicity 1
 C         1.408231         0.096456         0.130859
 C        -0.047423        -0.283510         0.065804
 C        -1.238118        -0.297515        -0.146788
 C        -2.697009        -0.325359         0.039526
 O        -3.064399         0.044927         1.374859
 C        -3.136932         0.777733        -0.904455
 C        -4.659746         0.928452        -1.372674
 O        -4.213959         1.028650        -2.753707
 C        -2.855745         0.743638        -2.400713
 H         2.016829        -0.322959         0.807570
 H         1.913393         0.020987        -0.843989
 H         1.595475         1.192705         0.219388
 H        -3.097809        -1.290573        -0.317869
 H        -2.310024        -0.264668         1.931843
 H        -2.754619         1.677242        -0.434711
 H        -5.221112         0.091900        -0.993551
 H        -5.072551         1.902789        -1.037621
 H        -2.424614        -0.195505        -2.894795
 H        -2.188985         1.490292        -2.839702
