19
Iteration:  3560
 C         1.562909        -0.328109         0.808423
 C         0.244658        -0.065608         0.188736
 C        -0.893235         0.176710        -0.133134
 C        -2.372729        -0.073533        -0.368050
 O        -3.103033        -0.341342         0.874376
 C        -3.009971         1.012072        -1.224829
 C        -4.559126         1.264258        -1.091427
 O        -4.794740         0.605550        -2.388607
 C        -3.346262         0.723588        -2.652399
 H         1.570577         0.235074         1.715751
 H         1.790597        -1.422161         0.938859
 H         2.502715        -0.224558         0.046835
 H        -2.468546        -1.140882        -0.855873
 H        -2.813751         0.369947         1.461467
 H        -2.483377         2.007775        -1.136602
 H        -5.206468         0.842575        -0.363381
 H        -4.815907         2.379096        -1.067251
 H        -2.907801        -0.250575        -3.101781
 H        -3.044120         1.609288        -3.271913
