19
Iteration:  1446charge 0 multiplicity 1
 C         1.389905        -0.245498        -0.363075
 C        -0.021468        -0.092924        -0.043307
 C        -1.200859         0.170117         0.239756
 C        -2.709877        -0.127421         0.235505
 O        -3.411199         0.015586         1.470706
 C        -3.277303         0.821727        -0.808757
 C        -4.511288         0.346467        -1.608075
 O        -4.025811         0.981345        -2.766576
 C        -2.661975         1.026659        -2.219104
 H         1.512639         0.166290        -1.411835
 H         2.150380         0.345530         0.334405
 H         1.800343        -1.256837        -0.541818
 H        -2.767282        -1.152116        -0.009801
 H        -2.756064         0.418220         2.025965
 H        -3.462150         1.774696        -0.325653
 H        -4.564087        -0.787201        -1.778887
 H        -5.570498         0.571768        -1.274450
 H        -2.038615         0.339793        -2.749854
 H        -2.117272         2.009678        -2.243491
