19
Iteration:  2956charge 0 multiplicity 1
 C         1.426337         0.087497         0.625462
 C         0.044770        -0.074556         0.219737
 C        -1.034695        -0.167080        -0.343513
 C        -2.454042        -0.282049        -0.312419
 O        -3.011998        -0.433878         1.050416
 C        -2.937959         0.956554        -1.132039
 C        -4.446835         1.268100        -1.063744
 O        -4.636731         1.003521        -2.479296
 C        -3.299296         0.500621        -2.589328
 H         1.838837         1.170190         0.728952
 H         1.615479        -0.354805         1.634573
 H         1.990819        -0.572133        -0.053730
 H        -2.843518        -1.138423        -0.780717
 H        -2.768887         0.316158         1.665846
 H        -2.267954         1.901231        -1.133715
 H        -4.973176         0.466929        -0.485598
 H        -4.607081         2.307505        -0.741788
 H        -3.316267        -0.552631        -2.949995
 H        -2.589457         1.021493        -3.404911
