19
Iteration:  3329
 C         1.390172        -0.053570        -0.434359
 C        -0.067689        -0.131540         0.011071
 C        -1.290770        -0.098115         0.113219
 C        -2.734494        -0.207922         0.168600
 O        -3.386463        -0.056185         1.450168
 C        -3.187896         0.825730        -0.788637
 C        -4.531795         0.600141        -1.455590
 O        -3.944883         1.103838        -2.728052
 C        -2.617514         0.795483        -2.192278
 H         1.918659        -0.919401        -0.312395
 H         1.244932         0.281062        -1.497527
 H         1.903021         0.825611         0.136884
 H        -3.149058        -1.309980        -0.043677
 H        -3.517853         0.852079         1.690709
 H        -2.908342         1.881750        -0.386894
 H        -4.923102        -0.430135        -1.525476
 H        -5.426165         1.207818        -1.209868
 H        -2.275220        -0.239587        -2.552528
 H        -1.795206         1.488345        -2.430035
