19
Iteration:  1817
 C         1.553604        -0.209175         0.277327
 C         0.129389        -0.376690         0.230622
 C        -1.070972        -0.041228         0.127694
 C        -2.468656        -0.014797         0.012768
 O        -3.012958         0.602836         1.204836
 C        -3.178334         0.911693        -1.114690
 C        -4.706951         0.605521        -1.313788
 O        -4.529291         0.596820        -2.756433
 C        -3.081709         0.746448        -2.606611
 H         1.974650        -1.173456        -0.247131
 H         2.040247         0.538071        -0.262006
 H         1.875412        -0.198093         1.323328
 H        -2.842973        -1.195981        -0.025896
 H        -2.713490         0.084773         1.969211
 H        -2.928316         1.906896        -0.742231
 H        -5.028533        -0.355599        -0.773445
 H        -5.364568         1.412071        -1.105777
 H        -2.500339        -0.071311        -3.038624
 H        -2.670817         1.569489        -3.163007
