19
Iteration:  4560charge 0 multiplicity 1
 C         1.422500         0.008890        -0.452710
 C        -0.001538        -0.030609         0.015438
 C        -1.224100        -0.107784         0.143427
 C        -2.700029        -0.271566        -0.032781
 O        -3.403411        -0.738728         1.213350
 C        -3.319086         0.979330        -0.612340
 C        -4.572776         0.749584        -1.499682
 O        -3.815274         0.845077        -2.678968
 C        -2.721207         1.480856        -1.929203
 H         1.676895        -0.968766        -0.869428
 H         1.555516         0.809958        -1.186561
 H         2.057188         0.328391         0.400658
 H        -2.865148        -1.068334        -0.695226
 H        -3.615736         0.124004         1.585898
 H        -3.625906         1.565070         0.238202
 H        -5.072957        -0.383875        -1.337974
 H        -5.335846         1.531114        -1.475714
 H        -1.718625         1.147370        -2.359756
 H        -2.863421         2.642887        -1.954795
