19
Iteration:  3245
 C         1.119502        -0.122175        -0.624495
 C        -0.174330         0.014489        -0.034212
 C        -1.351162        -0.046130         0.217622
 C        -2.774607        -0.198440         0.183619
 O        -3.340505        -0.069646         1.479221
 C        -3.300648         0.990490        -0.692514
 C        -4.429507         0.526178        -1.555597
 O        -3.749624         0.792728        -2.768680
 C        -2.501241         1.034416        -2.055412
 H         1.153733        -1.169329        -1.251155
 H         1.510924         0.507418        -1.432364
 H         1.965780        -0.236903         0.058157
 H        -3.097861        -1.193780        -0.258098
 H        -2.687750         0.377614         2.099784
 H        -3.236694         1.858717        -0.065095
 H        -4.724447        -0.538474        -1.420165
 H        -5.303504         1.176692        -1.523432
 H        -1.599247         0.293462        -2.172875
 H        -2.305310         2.130038        -2.184228
