19
Iteration:  4890charge 0 multiplicity 1
 C         1.477963        -0.215474         0.631581
 C         0.103562        -0.079500         0.261575
 C        -0.933395        -0.184121        -0.355583
 C        -2.415633        -0.150657        -0.471588
 O        -3.074050        -0.586524         0.751320
 C        -3.060982         1.198730        -0.911318
 C        -4.637397         1.103486        -1.026635
 O        -4.554755         0.690628        -2.427877
 C        -3.233864         1.226829        -2.437523
 H         1.950906         0.701501         0.900004
 H         1.733171        -0.870633         1.420908
 H         2.083624        -0.662277        -0.254104
 H        -2.761871        -0.841418        -1.314118
 H        -2.443583        -0.634860         1.511184
 H        -2.712669         2.064323        -0.188318
 H        -5.198469         0.246117        -0.386346
 H        -5.207090         2.017575        -0.864722
 H        -2.571256         0.398667        -2.881534
 H        -3.133763         2.264933        -2.944742
