19
Iteration:    72
 C         1.512359        -0.527767         0.387275
 C         0.151115         0.084998         0.154925
 C        -1.016967         0.186595        -0.192281
 C        -2.514589         0.089337         0.033729
 O        -2.768142         0.392269         1.355384
 C        -3.406572         0.725969        -0.927572
 C        -4.753836         0.255178        -1.519598
 O        -4.522444         0.791578        -2.840888
 C        -3.098625         0.876978        -2.457449
 H         1.833348        -0.265793         1.468543
 H         1.427287        -1.640977         0.502419
 H         2.295119        -0.153376        -0.280053
 H        -2.653517        -1.037565        -0.014122
 H        -2.377290         1.231475         1.629042
 H        -3.449083         1.759511        -0.450000
 H        -4.776351        -0.890039        -1.483551
 H        -5.588000         0.888365        -1.061387
 H        -2.341662         0.138534        -2.952488
 H        -2.906957         1.909334        -2.872832
