19
Iteration:  4386charge 0 multiplicity 1
 C         1.490204        -0.025869         0.342250
 C         0.072885        -0.132510        -0.001019
 C        -1.108411        -0.088867        -0.183362
 C        -2.501348        -0.324331        -0.217306
 O        -3.127532        -0.467296         1.039701
 C        -3.187419         0.919655        -0.866986
 C        -4.712672         0.674965        -1.208244
 O        -4.388371         1.226761        -2.567653
 C        -2.903415         1.167048        -2.297098
 H         2.008735         0.513982        -0.456426
 H         1.652572         0.621992         1.203959
 H         1.827694        -1.112471         0.368678
 H        -2.754959        -1.278193        -0.834655
 H        -2.610543        -1.137104         1.501210
 H        -2.887346         1.772921        -0.288513
 H        -5.004474        -0.450429        -1.089602
 H        -5.484981         1.439440        -0.688946
 H        -2.501813         0.252527        -2.993424
 H        -2.505474         2.109385        -2.625909
