19
Iteration:  4604charge 0 multiplicity 1
 C         1.351712         0.114353        -0.303586
 C        -0.051972        -0.152348        -0.127703
 C        -1.239461        -0.188509         0.160001
 C        -2.684480        -0.314176        -0.037454
 O        -3.403174        -0.584470         1.200726
 C        -3.312762         0.933221        -0.655178
 C        -4.513709         0.598101        -1.428324
 O        -3.929330         1.066171        -2.687750
 C        -2.669050         1.413476        -2.003230
 H         1.953075        -0.791037        -0.344633
 H         1.457103         0.564425        -1.288246
 H         1.714239         0.857136         0.474924
 H        -2.849463        -1.228312        -0.696962
 H        -2.687335        -0.560262         1.847825
 H        -3.184851         1.801203         0.015374
 H        -4.861437        -0.610788        -1.476037
 H        -5.326610         1.215631        -1.070509
 H        -1.748438         0.877045        -2.372476
 H        -2.426086         2.465692        -2.074998
