19
Iteration:  2509
 C         1.311977         0.002099        -0.328107
 C         0.043694        -0.083761         0.229237
 C        -1.156489        -0.089188         0.275467
 C        -2.585057        -0.241884         0.051393
 O        -3.341463        -0.015289         1.277717
 C        -3.147019         0.871484        -0.845518
 C        -4.536719         0.613275        -1.385091
 O        -4.199078         0.883338        -2.760092
 C        -2.753236         0.974329        -2.343411
 H         1.329777        -0.591807        -1.325326
 H         1.688767         0.983755        -0.398886
 H         2.162177        -0.321325         0.352732
 H        -2.828582        -1.297306        -0.366397
 H        -3.045685        -0.616079         1.960673
 H        -2.903780         1.836276        -0.334933
 H        -4.767579        -0.368730        -1.057135
 H        -5.379565         1.274877        -1.083785
 H        -2.333335         0.008772        -2.694482
 H        -2.117315         1.812811        -2.701187
