19
Iteration:  1107
 C         0.769423        -0.890694        -1.074385
 C        -0.379285        -0.337798        -0.335974
 C        -1.285772         0.044944         0.321676
 C        -2.786221         0.095660         0.597527
 O        -3.235768         1.139016         1.374297
 C        -3.626497         0.231730        -0.739649
 C        -3.110713        -0.237177        -2.097113
 O        -3.278246         1.048531        -2.622137
 C        -3.553195         1.648865        -1.305582
 H         1.570080        -0.191685        -0.973651
 H         1.362656        -1.831704        -0.630746
 H         0.590422        -1.140544        -2.159123
 H        -3.044492        -0.831104         1.069597
 H        -3.796898         0.605831         2.007110
 H        -4.675306         0.046444        -0.630598
 H        -1.940715        -0.464425        -1.991823
 H        -3.588210        -1.149632        -2.533422
 H        -2.766449         2.251740        -0.782392
 H        -4.504178         2.246222        -1.321026
