19
Iteration:  2230
 C         1.594586        -0.439829         0.598194
 C         0.214131         0.151558         0.185593
 C        -0.969197         0.173297        -0.037379
 C        -2.404923         0.068347        -0.233256
 O        -3.205308        -0.033071         1.022795
 C        -3.046469         1.029692        -1.179279
 C        -4.554978         0.968567        -1.134656
 O        -4.702038         0.660597        -2.586766
 C        -3.229794         0.526774        -2.612775
 H         2.221036         0.268323         1.034252
 H         1.587890        -1.448744         1.106237
 H         2.271873        -0.618527        -0.249890
 H        -2.462027        -1.094561        -0.505266
 H        -2.502146        -0.079322         1.663207
 H        -2.770353         2.069528        -1.218411
 H        -4.927078         0.157183        -0.550524
 H        -5.158776         1.717774        -0.673472
 H        -3.008053        -0.603478        -2.734635
 H        -2.703757         1.022619        -3.420320
