19
Iteration:   601charge 0 multiplicity 1
 C         1.626032        -0.250159         0.817205
 C         0.333394         0.120428         0.250917
 C        -0.836769         0.174893        -0.041887
 C        -2.290723        -0.064219        -0.278656
 O        -3.087387         0.237728         0.865490
 C        -3.041107         0.844283        -1.319092
 C        -4.593657         1.041187        -1.085382
 O        -4.860222         0.428963        -2.490555
 C        -3.467693         0.479963        -2.711755
 H         1.589028        -1.252492         1.046603
 H         2.511017        -0.107631         0.104680
 H         1.819775         0.387134         1.684302
 H        -2.274325        -1.166994        -0.565056
 H        -3.144450        -0.481821         1.497875
 H        -2.500925         1.814350        -1.211116
 H        -4.992839         0.401865        -0.277004
 H        -5.028268         2.065332        -0.925530
 H        -3.140565        -0.527931        -2.999082
 H        -3.153579         1.210559        -3.469879
