19
Iteration:  1536charge 0 multiplicity 1
 C         1.435995         0.294833        -0.066534
 C        -0.038059        -0.033292         0.004452
 C        -1.189459        -0.442603         0.128508
 C        -2.713687        -0.379472         0.037938
 O        -3.316577        -0.171383         1.348966
 C        -3.028959         0.842950        -0.919531
 C        -4.411258         1.323878        -1.308039
 O        -4.241328         0.773134        -2.715067
 C        -2.870368         0.499909        -2.433644
 H         1.777365         0.633576        -1.029074
 H         1.411046         1.264277         0.664941
 H         2.000849        -0.549290         0.412216
 H        -3.150893        -1.188210        -0.470888
 H        -2.803669         0.568578         1.748147
 H        -2.495809         1.731751        -0.522397
 H        -5.275728         0.841930        -0.822557
 H        -4.735481         2.365104        -1.210102
 H        -2.639362        -0.538962        -2.664167
 H        -2.091875         1.106353        -3.088350
