19
Iteration:  3059charge 0 multiplicity 1
 C         1.538719        -0.279771         0.232948
 C         0.125434        -0.028384         0.302174
 C        -1.049049        -0.060572        -0.060837
 C        -2.516722        -0.034676        -0.239948
 O        -3.186016        -0.093360         1.052702
 C        -3.163263         1.115222        -0.966158
 C        -4.620984         0.684753        -1.184826
 O        -4.420253         0.685580        -2.597125
 C        -3.049033         1.011962        -2.478662
 H         2.122206         0.310838        -0.644476
 H         2.008773        -0.090966         1.209481
 H         1.597622        -1.377625         0.144380
 H        -2.788059        -0.911898        -0.804021
 H        -2.564665        -0.434229         1.730505
 H        -3.032111         2.033897        -0.405529
 H        -4.953191        -0.235234        -0.632826
 H        -5.379379         1.488858        -0.955709
 H        -2.387341         0.087045        -2.691273
 H        -2.823688         1.913129        -3.027139
