19
Iteration:  4537
 C         1.328679        -0.058850        -0.374053
 C        -0.050016         0.012280        -0.083033
 C        -1.227471         0.037246         0.131127
 C        -2.649176        -0.308259        -0.098284
 O        -3.324021        -0.732669         1.164295
 C        -3.340643         0.961447        -0.626011
 C        -4.597265         0.773955        -1.426404
 O        -3.757688         0.762921        -2.682679
 C        -2.731243         1.485729        -1.865266
 H         1.445096        -0.984640        -0.997799
 H         1.597787         0.911038        -0.871387
 H         1.926181         0.017694         0.526175
 H        -2.839521        -1.111988        -0.727848
 H        -3.537663         0.134686         1.571921
 H        -3.565254         1.591470         0.231348
 H        -5.408813        -0.205431        -1.204460
 H        -5.138339         1.676228        -1.641501
 H        -1.691069         1.119108        -2.097110
 H        -2.972607         2.657314        -1.915406
