19
Iteration:   787charge 0 multiplicity 1
 C         1.317208         0.025874        -0.431549
 C        -0.010989        -0.081414         0.025168
 C        -1.201183         0.047155         0.368720
 C        -2.601080        -0.104125         0.268717
 O        -3.367241         0.051019         1.443553
 C        -3.149793         0.867890        -0.855539
 C        -4.590165         0.679060        -1.502712
 O        -4.046417         0.868071        -2.828034
 C        -2.693472         0.597200        -2.264598
 H         2.099889         0.040807         0.296930
 H         1.569208        -0.838205        -1.161313
 H         1.439971         0.986918        -0.956051
 H        -2.720925        -1.106827        -0.098406
 H        -3.571383        -0.844975         1.765661
 H        -2.970561         1.945381        -0.693949
 H        -5.003220        -0.328670        -1.405921
 H        -5.374392         1.353395        -1.232258
 H        -2.470379        -0.437956        -2.523793
 H        -1.936843         1.316498        -2.648203
