19
Iteration:  2939
 C         1.353604         0.179765         0.697485
 C         0.038451        -0.061656         0.150904
 C        -1.043426        -0.304053        -0.382506
 C        -2.495384        -0.367281        -0.307142
 O        -2.957167        -0.392618         1.119078
 C        -2.957339         0.848142        -1.172237
 C        -4.382198         1.284720        -1.037205
 O        -4.613415         1.079455        -2.454103
 C        -3.286023         0.533261        -2.724565
 H         1.348233         1.256407         0.910978
 H         1.531663        -0.286301         1.653811
 H         2.165636        -0.235597         0.040003
 H        -2.954183        -1.348012        -0.716883
 H        -2.230243         0.142768         1.530342
 H        -2.227531         1.613668        -0.993473
 H        -4.987954         0.806391        -0.247503
 H        -4.663636         2.340790        -0.750516
 H        -3.378159        -0.562528        -2.765682
 H        -2.924275         1.077154        -3.533928
