19
Iteration:  3759
 C         1.449818        -0.156566        -0.170073
 C         0.057384        -0.047672         0.036504
 C        -1.205559         0.050324         0.176949
 C        -2.695657        -0.153828         0.118123
 O        -3.282758        -0.205432         1.400469
 C        -3.216966         0.835213        -0.844073
 C        -4.693715         0.755895        -1.487700
 O        -4.083154         1.048408        -2.779807
 C        -2.772738         0.805140        -2.327744
 H         1.808504         0.381006        -1.049310
 H         1.995585         0.277871         0.667507
 H         1.853221        -1.159110        -0.604068
 H        -2.848060        -1.118712        -0.240792
 H        -2.625870        -0.588494         1.997700
 H        -3.155963         1.861585        -0.420145
 H        -5.136697        -0.188817        -1.417980
 H        -5.333186         1.642339        -1.297695
 H        -2.311041        -0.163350        -2.562888
 H        -2.179930         1.672624        -2.545543
