19
Iteration:   826
 C         1.288805        -0.235448        -0.480212
 C        -0.051677         0.234281        -0.162754
 C        -1.160399         0.078609         0.292164
 C        -2.625900        -0.091913         0.352130
 O        -3.413058         0.188892         1.504582
 C        -3.225502         0.703358        -0.816365
 C        -4.496557         0.267385        -1.606459
 O        -4.009249         0.989824        -2.725445
 C        -2.611067         0.867424        -2.220648
 H         1.940850        -0.176217         0.468480
 H         1.168287        -1.239864        -0.750073
 H         1.737695         0.275267        -1.332791
 H        -2.774135        -1.200999         0.193324
 H        -4.102377        -0.504661         1.509896
 H        -3.358830         1.694133        -0.340296
 H        -4.484038        -0.852631        -1.739087
 H        -5.510726         0.684731        -1.322560
 H        -2.017970         0.013067        -2.621096
 H        -1.962264         1.750285        -2.337076
