19
Iteration:  3565
 C         1.588805        -0.334362         0.818527
 C         0.290642        -0.038872         0.139463
 C        -0.930772         0.135815        -0.148344
 C        -2.380150        -0.100939        -0.382760
 O        -3.115831        -0.347698         0.888140
 C        -3.024486         1.061485        -1.238806
 C        -4.562455         1.285108        -1.093793
 O        -4.767749         0.603628        -2.383466
 C        -3.347751         0.706308        -2.671594
 H         1.858563         0.232860         1.776976
 H         1.611215        -1.398723         1.027266
 H         2.470993        -0.193637         0.310963
 H        -2.526128        -1.032967        -0.813678
 H        -2.835941         0.333612         1.533441
 H        -2.575924         2.036143        -0.998951
 H        -5.222196         0.849356        -0.254451
 H        -4.959342         2.281993        -1.160614
 H        -2.958765        -0.265039        -2.924766
 H        -3.054259         1.631827        -3.183410
