19
Iteration:  2758
 C         1.591856        -0.164964         0.123802
 C         0.155503         0.121260         0.247211
 C        -1.071590        -0.020537         0.108396
 C        -2.539059        -0.152158        -0.128616
 O        -3.197842        -0.491753         1.136813
 C        -3.136286         1.064046        -0.945785
 C        -4.720528         0.864872        -1.234776
 O        -4.407650         1.099480        -2.723883
 C        -3.014098         0.719828        -2.458169
 H         2.126508        -0.442430         1.055142
 H         1.488183        -1.052926        -0.545253
 H         2.161224         0.645640        -0.246189
 H        -2.616848        -1.151199        -0.708167
 H        -2.747365        -0.038146         1.843010
 H        -2.850688         2.075239        -0.554188
 H        -5.128940        -0.129852        -0.949296
 H        -5.532778         1.572569        -1.053666
 H        -2.739540        -0.420580        -2.423270
 H        -2.380228         1.195583        -3.097246
