19
Iteration:   845charge 0 multiplicity 1
 C         1.291267        -0.296566        -0.491719
 C        -0.037439         0.206104        -0.112347
 C        -1.218510         0.074369         0.357675
 C        -2.636351        -0.206905         0.249692
 O        -3.263233         0.272820         1.618393
 C        -3.353490         0.722225        -0.800494
 C        -4.458606         0.147647        -1.670493
 O        -3.971098         0.967466        -2.867247
 C        -2.703248         1.075792        -2.126140
 H         1.923191        -0.108466         0.306165
 H         1.373043        -1.432196        -0.641784
 H         1.746918         0.157627        -1.390585
 H        -2.790566        -1.229144         0.030616
 H        -4.127743        -0.126496         1.692022
 H        -3.679753         1.610611        -0.314711
 H        -4.315350        -0.873792        -1.984682
 H        -5.476917         0.373664        -1.273394
 H        -2.010834         0.280205        -2.518504
 H        -2.199977         2.017674        -2.307866
