19
Iteration:  1265charge 0 multiplicity 1
 C         1.203727        -0.511678        -0.416532
 C        -0.233719        -0.379648        -0.269155
 C        -1.515368        -0.353317        -0.230550
 C        -2.890370        -0.066927         0.365558
 O        -2.857315         0.970068         1.403666
 C        -3.921233         0.449606        -0.677442
 C        -3.857002        -0.201645        -2.038066
 O        -3.357208         1.000984        -2.707426
 C        -3.309402         1.676719        -1.426448
 H         1.715295         0.507853        -0.699664
 H         1.536991        -0.892876         0.555368
 H         1.453500        -1.327739        -1.135515
 H        -3.051348        -1.036064         0.833088
 H        -1.944920         1.375521         1.296498
 H        -4.890613         0.562327        -0.082146
 H        -2.931388        -0.833572        -2.074910
 H        -4.772580        -0.638009        -2.557141
 H        -2.257208         1.966619        -1.173750
 H        -3.837706         2.607470        -1.315604
