19
Iteration:  2188
 C         1.633173        -0.261373         0.466727
 C         0.215067        -0.283663         0.331818
 C        -0.969511        -0.012099         0.079297
 C        -2.477197        -0.056156        -0.183376
 O        -3.052519         0.397588         1.041070
 C        -3.135812         0.881117        -1.191304
 C        -4.606192         0.711918        -1.155215
 O        -4.680956         0.667338        -2.679572
 C        -3.221551         0.769875        -2.677502
 H         1.860084         0.444995         1.330294
 H         2.111844        -1.159738         0.798783
 H         2.029345         0.164321        -0.440126
 H        -2.799729        -1.073005        -0.461701
 H        -2.617665         0.023642         1.844168
 H        -2.787306         1.871517        -0.895401
 H        -5.091027        -0.215518        -0.649489
 H        -5.214831         1.472520        -0.615198
 H        -2.749218        -0.098397        -3.063979
 H        -2.982152         1.701720        -3.214114
