19
Iteration:  3115
 C         1.414224        -0.218262         0.155105
 C         0.072086        -0.183058        -0.208543
 C        -1.138544        -0.009069        -0.062891
 C        -2.631796        -0.132133        -0.004042
 O        -2.978436        -0.005047         1.388092
 C        -3.359558         1.017622        -0.788330
 C        -4.806157         0.749410        -1.477163
 O        -4.091523         0.539461        -2.776424
 C        -2.894088         1.171671        -2.245023
 H         2.098727        -0.211282        -0.798394
 H         1.566724         0.578844         0.888342
 H         1.686088        -1.200683         0.535421
 H        -3.007751        -1.001186        -0.385214
 H        -2.942383        -0.770928         2.008860
 H        -3.325155         1.843928        -0.159523
 H        -5.337463        -0.069775        -0.950340
 H        -5.395931         1.674476        -1.677356
 H        -1.942174         0.783928        -2.801782
 H        -2.857445         2.221275        -2.407106
