19
Iteration:   330
 C         1.187335        -0.002079        -0.816778
 C        -0.099332        -0.066651         0.058615
 C        -1.243621         0.049869         0.528046
 C        -2.746306        -0.019619         0.393332
 O        -3.522316         0.273388         1.471029
 C        -3.015456         0.968984        -0.806281
 C        -4.438139         0.822330        -1.514268
 O        -3.898466         0.454165        -2.830120
 C        -2.600410         0.475291        -2.228965
 H         0.957793         0.212091        -1.828305
 H         1.958855         0.757218        -0.488439
 H         1.744358        -0.947691        -0.851784
 H        -2.881061        -1.050007        -0.072357
 H        -3.332845        -0.340861         2.252921
 H        -2.757563         1.955188        -0.508886
 H        -4.923702        -0.082288        -1.058788
 H        -5.236876         1.568455        -1.444989
 H        -2.117693        -0.475549        -2.541886
 H        -1.921561         1.188830        -2.583279
