19
Iteration:  1046
 C         1.116835        -0.596123        -0.635146
 C        -0.358386        -0.387526        -0.366549
 C        -1.437424        -0.243086         0.117876
 C        -2.847582        -0.004211         0.436266
 O        -2.734535         0.982415         1.494702
 C        -3.848169         0.379128        -0.732461
 C        -3.688986        -0.274819        -2.098149
 O        -3.180866         1.017325        -2.641849
 C        -3.588984         1.693787        -1.499435
 H         1.565234         0.380000        -0.264474
 H         1.483850        -1.480389        -0.247596
 H         1.247940        -0.388651        -1.700228
 H        -3.297548        -0.948356         0.903105
 H        -3.574079         1.507360         1.565524
 H        -4.894269         0.245450        -0.352301
 H        -2.934787        -0.943772        -2.355081
 H        -4.636816        -0.531502        -2.610834
 H        -2.722131         2.172666        -1.021106
 H        -4.424349         2.371011        -1.744320
