19
Iteration:  2460charge 0 multiplicity 1
 C         1.509043         0.082636         0.050853
 C         0.053264         0.084911        -0.218440
 C        -1.137021        -0.129945         0.024147
 C        -2.592637        -0.275778         0.121499
 O        -3.209256        -0.171737         1.420897
 C        -3.240569         0.816569        -0.785714
 C        -4.696853         0.891019        -1.467608
 O        -4.152755         1.111598        -2.833586
 C        -2.959945         0.523240        -2.301894
 H         2.103295        -0.105326        -0.835532
 H         1.981415         1.064284         0.555454
 H         1.821469        -0.627285         0.822722
 H        -3.028934        -1.347738        -0.234330
 H        -2.635789        -0.589476         2.096224
 H        -2.784959         1.779819        -0.551994
 H        -5.357324        -0.043073        -1.359197
 H        -5.360933         1.711128        -1.182755
 H        -2.757851        -0.482761        -2.393286
 H        -2.127240         0.861695        -2.918043
