19
Iteration:  2731charge 0 multiplicity 1
 C         1.594457        -0.164261         0.039005
 C         0.144353        -0.069253         0.167756
 C        -1.079744        -0.006173         0.120436
 C        -2.557769        -0.150800        -0.058230
 O        -3.234906        -0.331550         1.217557
 C        -3.172864         0.890686        -0.930267
 C        -4.680444         0.766976        -1.285034
 O        -4.400445         0.945100        -2.759688
 C        -2.930471         0.990241        -2.428930
 H         1.992785        -0.589550         0.980091
 H         1.740092        -0.896171        -0.751940
 H         2.214913         0.835238        -0.012809
 H        -2.623903        -1.123290        -0.486460
 H        -3.119895         0.420839         1.786276
 H        -2.985011         1.835546        -0.435607
 H        -5.252779        -0.138650        -1.021828
 H        -5.382589         1.554381        -0.966248
 H        -2.294172         0.251644        -2.821340
 H        -2.652243         2.095964        -2.621963
