19
Iteration:  1999charge 0 multiplicity 1
 C         1.156107        -0.122460        -0.657278
 C        -0.106001        -0.047805        -0.035697
 C        -1.144172        -0.059016         0.707363
 C        -2.558744        -0.028086         0.339329
 O        -3.569310         0.351208         1.268440
 C        -2.919523         0.876055        -0.907447
 C        -4.390586         0.750977        -1.342242
 O        -4.079334         0.578777        -2.710233
 C        -2.617710         0.472945        -2.338243
 H         1.790482        -0.834469        -0.280404
 H         1.012742        -0.409031        -1.785953
 H         1.494064         0.946188        -0.589322
 H        -3.071786        -1.047921         0.180171
 H        -3.673002         1.295336         1.268590
 H        -2.512298         1.873960        -0.860450
 H        -4.792649         0.021522        -0.788150
 H        -5.185814         1.496315        -1.197294
 H        -2.222465        -0.451095        -2.687873
 H        -2.204772         1.275135        -2.884615
