19
Iteration:   610
 C         1.586214        -0.177402         0.766335
 C         0.311700         0.101585         0.280605
 C        -0.850616         0.037713        -0.025059
 C        -2.372602        -0.087005        -0.287470
 O        -3.033397         0.220099         0.886993
 C        -2.999316         0.887023        -1.302206
 C        -4.604118         1.050975        -1.087628
 O        -4.876762         0.414535        -2.435910
 C        -3.378398         0.507247        -2.773659
 H         1.719602        -1.199192         1.240631
 H         2.335792         0.043951         0.038403
 H         1.742510         0.588745         1.518081
 H        -2.599480        -1.122733        -0.583776
 H        -3.082916        -0.536172         1.484943
 H        -2.591984         1.980253        -1.330394
 H        -4.992382         0.541887        -0.207313
 H        -4.872339         2.140100        -1.148798
 H        -3.021620        -0.481714        -2.993909
 H        -3.110507         1.208800        -3.620687
