19
Iteration:  4887charge 0 multiplicity 1
 C         1.476615        -0.224674         0.618209
 C         0.101415        -0.065561         0.269116
 C        -0.932721        -0.188235        -0.343635
 C        -2.429999        -0.156854        -0.433911
 O        -3.057904        -0.603933         0.742590
 C        -3.077367         1.225528        -0.913878
 C        -4.634555         1.089905        -1.020789
 O        -4.557808         0.705965        -2.430504
 C        -3.223705         1.199448        -2.436316
 H         1.911138         0.737496         0.916344
 H         1.674137        -0.898906         1.452368
 H         2.086387        -0.588960        -0.282856
 H        -2.758463        -0.826835        -1.346970
 H        -2.448655        -0.636407         1.475878
 H        -2.652531         2.028368        -0.241174
 H        -5.038444         0.295978        -0.512664
 H        -5.151222         2.165946        -0.859412
 H        -2.601747         0.428738        -2.933701
 H        -3.244295         2.246568        -3.064734
