19
Iteration:  4112charge 0 multiplicity 1
 C         1.588293        -0.100799         0.335286
 C         0.121426        -0.161927         0.194935
 C        -1.061756        -0.291720        -0.060248
 C        -2.544357        -0.186795        -0.305506
 O        -3.177791        -0.449085         0.981987
 C        -3.126488         1.119771        -0.918719
 C        -4.710223         1.027186        -1.156900
 O        -4.410061         0.759106        -2.522202
 C        -3.078139         1.183115        -2.462358
 H         1.900013        -0.233222         1.379615
 H         2.063026        -0.721759        -0.452694
 H         1.982936         0.917847         0.168367
 H        -2.843119        -1.097750        -0.941556
 H        -2.554857        -0.911756         1.533100
 H        -2.730591         2.090959        -0.353422
 H        -5.140107         0.251352        -0.593066
 H        -5.114393         2.056110        -1.066307
 H        -2.378823         0.579063        -3.123304
 H        -2.766498         2.183958        -2.953896
