19
Iteration:  4147
 C         1.526598         0.031413         0.530238
 C         0.129109        -0.162459         0.011053
 C        -1.114160        -0.208786        -0.205948
 C        -2.512912        -0.340096        -0.368890
 O        -3.248820        -0.433749         0.893584
 C        -2.999057         0.954344        -0.999053
 C        -4.511866         1.142451        -0.996108
 O        -4.509479         0.862739        -2.429334
 C        -3.075080         1.021242        -2.471582
 H         1.485723         0.106193         1.561453
 H         2.152101        -0.802629         0.365725
 H         1.931363         0.968993         0.033980
 H        -2.808767        -1.135818        -1.046700
 H        -2.588754        -0.879602         1.423150
 H        -2.555851         1.806233        -0.302870
 H        -5.148082         0.516083        -0.309142
 H        -4.805307         2.185549        -0.840925
 H        -2.601529         0.162658        -3.011023
 H        -2.962953         2.094742        -2.836964
