19
Iteration:  4285charge 0 multiplicity 1
 C         1.578117         0.065628         0.595788
 C         0.161745        -0.059205         0.179917
 C        -0.968749        -0.235476        -0.100719
 C        -2.398523        -0.355308        -0.421879
 O        -3.217442        -0.586300         0.820136
 C        -2.986557         0.849033        -1.134396
 C        -4.594085         1.005638        -0.965607
 O        -4.567834         1.372327        -2.377726
 C        -3.240165         0.780099        -2.579172
 H         1.924022         1.185019         0.555817
 H         1.730944        -0.452539         1.614960
 H         2.142633        -0.402457        -0.196064
 H        -2.633884        -1.202302        -1.056386
 H        -2.826014         0.082001         1.434661
 H        -2.637795         1.729965        -0.736341
 H        -5.225800        -0.056254        -0.768583
 H        -5.079026         1.836984        -0.253956
 H        -3.547249        -0.235925        -2.939007
 H        -2.622332         1.490403        -3.156158
