19
Iteration:  1535
 C         1.431991         0.289466        -0.077508
 C        -0.028542        -0.030389         0.011599
 C        -1.201355        -0.435339         0.129790
 C        -2.713095        -0.376001         0.036274
 O        -3.317396        -0.168612         1.352377
 C        -3.030406         0.836785        -0.921096
 C        -4.415849         1.318214        -1.305992
 O        -4.235909         0.775808        -2.715127
 C        -2.861334         0.499529        -2.437083
 H         1.769896         0.647268        -1.022975
 H         1.432101         1.227517         0.634175
 H         1.969982        -0.543629         0.410263
 H        -3.128328        -1.240388        -0.458587
 H        -2.833482         0.569606         1.740100
 H        -2.518458         1.726155        -0.537000
 H        -5.277488         0.832770        -0.829241
 H        -4.744964         2.367779        -1.166204
 H        -2.623221        -0.531694        -2.664681
 H        -2.089331         1.140233        -3.055864
