19
Iteration:  4952charge 0 multiplicity 1
 C         1.603074        -0.209807         0.605162
 C         0.186870        -0.218429        -0.007815
 C        -1.033824        -0.188670        -0.216269
 C        -2.500410        -0.132419        -0.313958
 O        -3.100676        -0.434848         0.938236
 C        -3.160426         1.136769        -0.905391
 C        -4.656224         0.820878        -1.084464
 O        -4.501505         0.811077        -2.548459
 C        -3.164095         1.373580        -2.454840
 H         2.069682         0.692278         0.205909
 H         1.367537        -0.120212         1.670845
 H         2.222256        -1.061534         0.220859
 H        -2.833944        -0.948743        -0.926070
 H        -2.505766        -1.178270         1.226015
 H        -3.008204         2.017966        -0.290824
 H        -4.832329        -0.151067        -0.867596
 H        -5.387647         1.658087        -0.789649
 H        -2.445274         0.817495        -2.996855
 H        -3.028554         2.420454        -2.696078
