19
Iteration:  1162charge 0 multiplicity 1
 C         0.597954        -0.843951        -1.125364
 C        -0.336345        -0.367759        -0.203677
 C        -1.332110         0.071911         0.402771
 C        -2.795628         0.027115         0.560087
 O        -3.254346         1.047856         1.513487
 C        -3.624362         0.266934        -0.747592
 C        -2.920471        -0.164878        -2.041661
 O        -3.295458         1.031688        -2.728466
 C        -3.593574         1.658840        -1.443606
 H         1.354071        -0.318899        -1.570168
 H         1.040312        -1.748872        -0.570353
 H         0.143542        -1.229489        -2.039254
 H        -3.088891        -0.928533         1.005614
 H        -2.421245         1.381108         1.861344
 H        -4.639854        -0.075220        -0.648602
 H        -1.751048        -0.262351        -1.858000
 H        -3.235463        -1.119706        -2.534548
 H        -2.716341         2.195580        -0.984739
 H        -4.525468         2.257525        -1.539574
