19
Iteration:  2987
 C         1.696121        -0.038043         0.565066
 C         0.245026        -0.065962         0.149291
 C        -0.978580        -0.122556         0.050318
 C        -2.384467        -0.267964        -0.283785
 O        -3.188951        -0.371538         0.950804
 C        -3.064264         1.013389        -1.098215
 C        -4.643586         1.197126        -1.132317
 O        -4.665767         0.906326        -2.532666
 C        -3.277655         0.636158        -2.630735
 H         2.235954         0.845137         0.443760
 H         1.787034        -0.406137         1.627454
 H         2.140763        -0.920392         0.031235
 H        -2.701312        -1.182995        -0.835436
 H        -2.792265         0.249870         1.557964
 H        -2.559341         1.978861        -0.940820
 H        -5.293371         0.577216        -0.516947
 H        -4.928857         2.165648        -0.782693
 H        -3.291559        -0.379065        -2.936513
 H        -2.755582         1.439191        -3.308250
