19
Iteration:  1567
 C         1.271466         0.382601         0.192396
 C        -0.030393        -0.191155         0.009349
 C        -1.189708        -0.411935        -0.088853
 C        -2.619486        -0.241681        -0.052375
 O        -3.210475        -0.207339         1.276108
 C        -2.945796         0.917537        -1.035092
 C        -4.337927         1.463660        -1.244397
 O        -4.365648         0.701515        -2.571262
 C        -2.965272         0.346900        -2.454948
 H         1.842486         0.580089        -0.656935
 H         0.975069         1.241265         0.804132
 H         1.974958        -0.206658         0.778353
 H        -3.230968        -1.017208        -0.577340
 H        -2.461531         0.028088         1.840427
 H        -2.194825         1.696941        -0.888604
 H        -5.083110         0.971346        -0.622307
 H        -4.381426         2.573404        -1.518191
 H        -2.819720        -0.706737        -2.646039
 H        -2.319569         0.878880        -3.226891
