19
Iteration:  1054
 C         1.055587        -0.602431        -0.694316
 C        -0.325138        -0.373806        -0.331002
 C        -1.493364        -0.192317         0.097596
 C        -2.870958         0.003940         0.415496
 O        -2.775618         1.042685         1.537611
 C        -3.772036         0.311906        -0.698747
 C        -3.608922        -0.300220        -2.147800
 O        -3.171267         1.054104        -2.669139
 C        -3.591626         1.670299        -1.445069
 H         1.680540         0.167250        -0.294762
 H         1.522616        -1.644446        -0.416651
 H         0.993959        -0.735850        -1.780368
 H        -3.295532        -0.930121         0.841857
 H        -3.706237         1.417535         1.468818
 H        -4.782857         0.182078        -0.322004
 H        -2.817024        -1.052063        -2.290920
 H        -4.576104        -0.599032        -2.468903
 H        -2.818895         2.311091        -0.981954
 H        -4.438668         2.320060        -1.517603
