19
Iteration:   629charge 0 multiplicity 1
 C         1.616637         0.047869         0.738593
 C         0.124728        -0.061298         0.291933
 C        -0.994758        -0.169121        -0.143866
 C        -2.464709        -0.060043        -0.350906
 O        -3.010836         0.178431         1.041987
 C        -2.989028         0.979383        -1.300771
 C        -4.501214         1.165822        -1.190424
 O        -4.708105         0.368131        -2.407856
 C        -3.407392         0.486635        -2.703493
 H         1.758238        -1.061494         1.161131
 H         2.274765        -0.006000        -0.082561
 H         1.927477         0.895337         1.378754
 H        -2.668899        -1.060785        -0.721444
 H        -2.638573        -0.520117         1.650186
 H        -2.420067         1.938358        -1.220882
 H        -4.849350         0.575063        -0.341436
 H        -4.970610         2.126963        -1.114994
 H        -3.000091        -0.479169        -3.047502
 H        -3.244183         1.330219        -3.430725
