19
Iteration:  4016charge 0 multiplicity 1
 C         1.474431        -0.386151        -0.075196
 C         0.020124        -0.072258        -0.017610
 C        -1.175064         0.121049        -0.004936
 C        -2.641020        -0.152938        -0.004634
 O        -3.186419        -0.187845         1.321442
 C        -3.333633         0.992139        -0.756121
 C        -4.613878         0.561836        -1.444802
 O        -4.078460         0.753689        -2.767558
 C        -2.865583         1.388043        -2.171759
 H         1.623015        -1.360123         0.254798
 H         1.798429        -0.153281        -1.060663
 H         2.020650         0.298369         0.663726
 H        -2.977125        -1.150763        -0.614535
 H        -2.870569        -1.031977         1.641814
 H        -3.430638         1.953161        -0.075587
 H        -4.821711        -0.574522        -1.248591
 H        -5.371526         1.313571        -1.355587
 H        -2.001248         0.894529        -2.610052
 H        -2.824956         2.498927        -2.282093
