19
Iteration:  2066
 C         1.414926        -0.171107        -0.200991
 C        -0.043241        -0.052349        -0.081000
 C        -1.195752        -0.071115         0.185094
 C        -2.731913        -0.012077         0.269193
 O        -3.051600         0.380729         1.587943
 C        -3.313779         0.927400        -0.940470
 C        -4.667196         0.678740        -1.597344
 O        -4.115129         0.688382        -2.896172
 C        -2.779036         0.461216        -2.263447
 H         1.893276        -0.443066         0.764020
 H         1.766850        -0.865760        -1.065820
 H         1.721891         0.863527        -0.497223
 H        -3.043839        -1.095320         0.121730
 H        -2.178210         0.732193         1.941869
 H        -3.201641         1.959915        -0.678616
 H        -5.282406        -0.173766        -1.328770
 H        -5.441477         1.478877        -1.442501
 H        -2.511124        -0.574096        -2.179539
 H        -1.975757         1.050971        -2.676680
