19
Iteration:  2324
 C         1.618946         0.035072         0.590273
 C         0.154250        -0.133597         0.252128
 C        -1.036722        -0.225411        -0.038908
 C        -2.458270        -0.219740        -0.272978
 O        -3.149712         0.030813         0.963027
 C        -2.961420         0.888873        -1.176631
 C        -4.487001         1.130759        -1.098899
 O        -4.688429         0.805868        -2.536150
 C        -3.302192         0.546943        -2.666596
 H         1.888016         0.991844         0.115969
 H         1.781154        -0.041151         1.656262
 H         2.350271        -0.702755         0.164605
 H        -2.810904        -1.244309        -0.778802
 H        -2.820507        -0.429369         1.745517
 H        -2.275480         1.745226        -1.004239
 H        -5.045109         0.451924        -0.400412
 H        -4.890134         2.103094        -0.735989
 H        -3.129207        -0.511286        -2.743010
 H        -2.695185         1.135427        -3.446675
