19
Iteration:  4141charge 0 multiplicity 1
 C         1.556967         0.011932         0.495622
 C         0.123919        -0.155634         0.042316
 C        -1.049007        -0.247104        -0.200608
 C        -2.496901        -0.319803        -0.353537
 O        -3.270504        -0.429428         0.906723
 C        -3.042050         1.008291        -0.952803
 C        -4.513236         1.119630        -1.022456
 O        -4.533310         0.823806        -2.503076
 C        -3.082544         1.061237        -2.437460
 H         1.480973         0.187076         1.659717
 H         2.143051        -0.900515         0.105668
 H         1.919721         0.954321         0.147396
 H        -2.944849        -1.115403        -1.051451
 H        -2.576105        -0.868662         1.453970
 H        -2.573758         1.730922        -0.415440
 H        -5.077390         0.608095        -0.180064
 H        -4.854592         2.162254        -0.766294
 H        -2.548660         0.307696        -2.992460
 H        -2.797598         2.024135        -2.812748
