19
Iteration:  4900charge 0 multiplicity 1
 C         1.545730        -0.199130         0.671400
 C         0.110347        -0.147848         0.204713
 C        -0.980800        -0.137066        -0.352506
 C        -2.412342        -0.146196        -0.550721
 O        -3.114257        -0.527049         0.770967
 C        -3.102571         1.126228        -0.897517
 C        -4.662198         1.030122        -0.991163
 O        -4.548664         0.678820        -2.403123
 C        -3.178424         1.268584        -2.435429
 H         2.012882         0.745773         0.787077
 H         1.574848        -0.818137         1.521607
 H         2.071509        -0.770721        -0.223360
 H        -2.726440        -1.073834        -1.198844
 H        -2.342990        -0.566261         1.400039
 H        -2.696415         2.127776        -0.385513
 H        -5.248298         0.326063        -0.307427
 H        -5.218310         2.072802        -0.963503
 H        -2.397611         0.695909        -3.091257
 H        -2.980861         2.434332        -2.748122
