19
Iteration:  1888charge 0 multiplicity 1
 C         1.256705         0.007301        -0.186041
 C        -0.169347        -0.168813        -0.202953
 C        -1.344507        -0.208148         0.019987
 C        -2.809953        -0.122567         0.238949
 O        -3.017628         0.496632         1.511274
 C        -3.181053         0.938082        -0.863857
 C        -4.580950         0.938036        -1.506834
 O        -4.020474         0.394546        -2.745953
 C        -2.659039         0.523219        -2.246158
 H         1.669171        -0.951407        -0.250970
 H         1.809381         0.527844        -1.053586
 H         1.456429         0.483669         0.793093
 H        -3.432210        -1.090155        -0.090475
 H        -2.482889         0.036210         2.193108
 H        -2.804006         1.913020        -0.496943
 H        -5.271563         0.212940        -1.146861
 H        -5.070216         1.974805        -1.598354
 H        -2.028786        -0.343254        -2.338473
 H        -2.088102         1.249667        -2.814137
