19
Iteration:  4137charge 0 multiplicity 1
 C         1.549589        -0.013268         0.476558
 C         0.143548        -0.145461         0.076606
 C        -1.007149        -0.285461        -0.195929
 C        -2.525168        -0.298196        -0.358549
 O        -3.263560        -0.433740         0.915356
 C        -3.061283         1.031255        -0.903433
 C        -4.533126         1.121729        -1.032983
 O        -4.553523         0.795117        -2.539093
 C        -3.087447         1.091168        -2.432692
 H         1.561840         0.115740         1.504865
 H         2.101835        -0.783176         0.042929
 H         1.997307         0.976369         0.152040
 H        -2.855882        -1.079437        -0.940307
 H        -2.696519        -0.849895         1.572858
 H        -2.446015         1.916609        -0.443707
 H        -5.102631         0.451011        -0.249620
 H        -4.845114         2.151818        -0.856035
 H        -2.457060         0.382443        -3.017440
 H        -2.659668         2.055600        -2.879737
