19
Iteration:  4777charge 0 multiplicity 1
 C         1.502583         0.099500         0.363002
 C         0.088183        -0.230594         0.242779
 C        -1.104295        -0.186841        -0.053727
 C        -2.508819        -0.357315        -0.313375
 O        -3.181552        -0.604361         0.926761
 C        -2.978007         0.935153        -1.000671
 C        -4.571062         0.939299        -1.068060
 O        -4.504748         1.225544        -2.487911
 C        -3.075418         1.029972        -2.550794
 H         1.717104         0.342696         1.422268
 H         2.097873        -0.776004         0.042709
 H         1.765620         0.881079        -0.337581
 H        -2.668586        -1.300866        -0.994379
 H        -2.543053        -0.251280         1.600715
 H        -2.603056         1.802726        -0.357657
 H        -5.035297         0.031748        -0.717232
 H        -5.128662         1.642602        -0.522403
 H        -2.988011         0.121935        -3.204072
 H        -2.592762         1.966692        -2.915787
