19
Iteration:  1564charge 0 multiplicity 1
 C         1.273133         0.392011         0.174859
 C        -0.004779        -0.176056         0.001960
 C        -1.212807        -0.440343        -0.071289
 C        -2.603905        -0.239342        -0.042130
 O        -3.226463        -0.209940         1.286912
 C        -2.932842         0.915228        -1.028813
 C        -4.345659         1.455944        -1.271892
 O        -4.369309         0.710411        -2.586042
 C        -2.955127         0.356390        -2.431045
 H         1.881035         0.615162        -0.749852
 H         1.046635         1.189878         0.763530
 H         1.891985        -0.298610         0.758927
 H        -3.190269        -1.062493        -0.637129
 H        -2.491843         0.061807         1.918267
 H        -2.249336         1.750825        -0.878136
 H        -5.171073         1.016898        -0.684257
 H        -4.430089         2.573654        -1.434955
 H        -2.763452        -0.724208        -2.653994
 H        -2.328951         0.841533        -3.119043
