19
Iteration:   509
 C         1.598524        -0.245322         0.647700
 C         0.224764         0.037694         0.090602
 C        -0.969491         0.092402        -0.193057
 C        -2.433749        -0.044312        -0.054031
 O        -2.901273         0.335665         1.271842
 C        -3.185863         0.777351        -1.157102
 C        -4.712389         0.776229        -1.303755
 O        -4.707311         0.669150        -2.676486
 C        -3.227239         0.448570        -2.695284
 H         2.072558        -1.215706         0.311353
 H         2.283311         0.483615         0.525120
 H         1.421576        -0.231980         1.711895
 H        -2.552066        -1.132153        -0.040879
 H        -2.871520         1.273431         1.483879
 H        -2.769924         1.849162        -1.108118
 H        -5.173456        -0.117771        -0.827538
 H        -5.277327         1.627886        -0.948252
 H        -3.006695        -0.586573        -2.767958
 H        -2.640523         1.028197        -3.422068
