19
Iteration:  3908
 C         1.221284        -0.061585        -0.379138
 C        -0.143080        -0.140760        -0.214085
 C        -1.343123        -0.320600         0.043859
 C        -2.773587        -0.182407         0.195376
 O        -3.133964         0.064016         1.604825
 C        -3.426618         0.819952        -0.667818
 C        -4.519051         0.468006        -1.731587
 O        -3.780497         0.932710        -2.843318
 C        -2.647438         1.250255        -1.988896
 H         1.732555        -0.779659        -1.134589
 H         1.625256         0.945724        -0.687300
 H         1.838928        -0.439335         0.628976
 H        -3.095145        -1.180756         0.011296
 H        -2.600234        -0.478275         2.207167
 H        -3.631743         1.724740        -0.166012
 H        -4.901633        -0.559116        -1.770939
 H        -5.443991         1.064972        -1.594045
 H        -1.750624         0.621542        -2.103802
 H        -2.269193         2.302863        -2.188830
