19
Iteration:  1678
 C         1.610249        -0.211182         0.891117
 C         0.242077        -0.095316         0.268539
 C        -0.888331        -0.026204        -0.151707
 C        -2.357661        -0.013184        -0.336374
 O        -3.011190         0.040917         0.936497
 C        -3.022258         1.038147        -1.299080
 C        -4.589467         1.109562        -1.111670
 O        -4.864472         0.578387        -2.517807
 C        -3.419340         0.469787        -2.681623
 H         2.328435        -0.560092         0.131896
 H         2.028128         0.784143         1.118060
 H         1.740594        -0.861474         1.765481
 H        -2.606139        -1.135906        -0.667083
 H        -2.600874         0.682117         1.582488
 H        -2.530306         2.040001        -1.430469
 H        -4.953972         0.377783        -0.354187
 H        -4.956424         2.189799        -0.836405
 H        -3.032334        -0.507636        -2.895857
 H        -3.036753         0.976761        -3.601289
