19
Iteration:  2338
 C         1.478406         0.132288         0.535889
 C         0.170022        -0.254815         0.198669
 C        -1.013137        -0.232002        -0.076173
 C        -2.463313        -0.285587        -0.241240
 O        -3.247664         0.135231         0.970094
 C        -2.919781         0.827529        -1.229036
 C        -4.441969         1.024894        -1.022559
 O        -4.644474         0.880952        -2.432331
 C        -3.194885         0.543756        -2.687965
 H         1.764861         1.063800         0.115267
 H         1.605078         0.306520         1.732644
 H         2.178801        -0.726184         0.186515
 H        -2.784460        -1.286973        -0.525890
 H        -2.779682        -0.410482         1.660596
 H        -2.369009         1.730002        -1.031341
 H        -4.934867         0.250861        -0.460582
 H        -4.673484         2.076494        -0.758067
 H        -2.995814        -0.409007        -3.303245
 H        -2.847060         1.233948        -3.482445
