19
Iteration:  4719charge 0 multiplicity 1
 C         1.483508         0.186881         0.231414
 C         0.096242        -0.061377        -0.035362
 C        -1.091193        -0.376049        -0.126058
 C        -2.581988        -0.465542        -0.182747
 O        -3.138193        -0.441383         1.180005
 C        -3.159884         0.768097        -0.834437
 C        -4.670711         0.786538        -1.302411
 O        -4.314043         1.506426        -2.606820
 C        -2.971591         0.952172        -2.319690
 H         1.750906        -0.097492         1.296434
 H         2.305170        -0.330157        -0.348545
 H         1.650969         1.232258         0.280301
 H        -2.846200        -1.510276        -0.641850
 H        -3.429591        -1.289035         1.500254
 H        -3.095610         1.665431        -0.252242
 H        -5.008288        -0.176444        -1.406709
 H        -5.246025         1.475094        -0.599688
 H        -2.790292         0.049539        -2.940973
 H        -2.020772         1.621517        -2.757240
