19
Iteration:  3502charge 0 multiplicity 1
 C         1.618967        -0.188300         0.645921
 C         0.214336        -0.072729         0.364290
 C        -0.923808        -0.197255        -0.059731
 C        -2.383383        -0.112878        -0.317730
 O        -3.160911        -0.127719         0.869662
 C        -2.979755         1.061906        -1.190986
 C        -4.542608         1.102629        -1.076968
 O        -4.755355         0.729822        -2.459914
 C        -3.339281         0.720550        -2.684559
 H         1.841649        -0.179900         1.820144
 H         1.779459        -1.238645         0.312509
 H         2.041027         0.688921         0.097682
 H        -2.634064        -1.032346        -1.100519
 H        -2.533882        -0.006587         1.635451
 H        -2.539938         1.996209        -1.088062
 H        -5.040455         0.324338        -0.495013
 H        -4.752887         2.176470        -0.819843
 H        -3.147947        -0.314326        -3.065671
 H        -3.050990         1.340183        -3.546039
