19
Iteration:  3472charge 0 multiplicity 1
 C         1.556579        -0.106019         0.628032
 C         0.207823        -0.137458         0.037934
 C        -1.016198        -0.056980        -0.114052
 C        -2.526065        -0.293131        -0.207893
 O        -3.140503        -0.028526         1.031305
 C        -3.051701         0.849612        -1.103789
 C        -4.540385         1.134762        -1.110898
 O        -4.619532         0.810252        -2.544304
 C        -3.177725         0.703883        -2.658702
 H         1.526280        -0.200961         1.647549
 H         2.171695        -0.959557         0.234018
 H         2.084036         0.934669         0.533759
 H        -2.740159        -1.155171        -0.678439
 H        -2.829535        -0.701567         1.656831
 H        -2.373687         1.725643        -0.955738
 H        -5.119706         0.450674        -0.521207
 H        -4.838100         2.103862        -0.666331
 H        -3.037778        -0.312156        -3.117073
 H        -2.833096         1.630318        -3.111322
