19
Iteration:  4842
 C         1.528894        -0.133135         0.563513
 C         0.152772        -0.093650         0.081118
 C        -1.025354         0.021597        -0.110183
 C        -2.401158        -0.272309        -0.337205
 O        -3.145466        -0.733167         0.757901
 C        -3.047427         1.020719        -0.939285
 C        -4.576889         1.140140        -1.002048
 O        -4.654475         0.895713        -2.425489
 C        -3.146966         1.079030        -2.561051
 H         1.758096         0.586655         1.397022
 H         1.744608        -1.128779         1.057613
 H         2.348409        -0.060026        -0.140940
 H        -2.483466        -1.143572        -1.187567
 H        -2.916726        -0.256992         1.555839
 H        -2.659819         1.983026        -0.590753
 H        -5.169102         0.516089        -0.459257
 H        -4.925922         2.321238        -0.998420
 H        -2.544826         0.320267        -3.051767
 H        -2.883748         2.249653        -2.777802
