19
Iteration:   653charge 0 multiplicity 1
 C         1.378780         0.200346         0.591692
 C         0.051896        -0.260778         0.221928
 C        -1.097747        -0.245266        -0.222782
 C        -2.488233        -0.124854        -0.272968
 O        -2.987659         0.110776         1.063478
 C        -2.977342         1.018521        -1.199263
 C        -4.474315         1.204667        -1.220279
 O        -4.655863         0.360179        -2.312630
 C        -3.112485         0.497096        -2.679177
 H         1.931052        -0.568835         1.248546
 H         1.982599         0.237021        -0.266205
 H         1.265763         1.237904         0.930029
 H        -2.768068        -1.082578        -0.654025
 H        -2.300934         0.212257         1.712188
 H        -2.388606         1.964996        -0.886097
 H        -5.140902         1.034636        -0.382360
 H        -4.627041         2.257433        -1.488453
 H        -2.639493        -0.447809        -2.896320
 H        -3.107010         1.279326        -3.486721
