19
Iteration:  1344charge 0 multiplicity 1
 C         1.329757        -0.340078        -0.100732
 C        -0.130709        -0.436569        -0.266438
 C        -1.309259        -0.291695        -0.149132
 C        -2.744824        -0.070902         0.148802
 O        -2.866224         0.540767         1.487734
 C        -3.677869         0.821072        -0.732750
 C        -4.345360         0.003326        -1.834493
 O        -3.661689         0.778521        -2.840365
 C        -3.132262         1.747455        -1.765075
 H         1.487900         0.685318        -0.688445
 H         1.593046        -0.067177         0.879025
 H         1.942165        -1.183082        -0.537216
 H        -3.039827        -1.069694         0.160769
 H        -2.328425        -0.020833         2.130334
 H        -4.369557         1.129236         0.094284
 H        -4.031318        -1.120782        -1.847698
 H        -5.494780         0.026611        -2.079621
 H        -2.063565         1.949330        -1.750714
 H        -3.812129         2.543063        -1.853148
