19
Iteration:  4477charge 0 multiplicity 1
 C         1.429035        -0.031602        -0.137813
 C        -0.009189        -0.093965        -0.085784
 C        -1.217402        -0.073816        -0.013365
 C        -2.732378        -0.268010        -0.104890
 O        -3.260573        -0.602023         1.124942
 C        -3.298372         1.070531        -0.614280
 C        -4.651023         0.680230        -1.424671
 O        -3.884005         0.815501        -2.627670
 C        -2.825115         1.493101        -2.018700
 H         1.827788        -0.412179        -1.074597
 H         1.780030         0.993119        -0.123367
 H         1.962695        -0.676003         0.633024
 H        -2.924905        -1.075070        -0.967890
 H        -2.522337        -0.951042         1.689106
 H        -3.474399         1.779786         0.269987
 H        -5.157709        -0.344957        -1.177803
 H        -5.451294         1.527420        -1.471857
 H        -1.865519         1.044522        -2.326069
 H        -2.916019         2.525761        -2.139012
