19
Iteration:   419
 C         1.377309         0.168741        -0.192618
 C        -0.029213        -0.201064         0.120884
 C        -1.243737        -0.225522         0.246638
 C        -2.675683        -0.197390         0.145377
 O        -3.094183         0.392550         1.487928
 C        -3.106258         0.878629        -0.947307
 C        -4.571307         0.970676        -1.451183
 O        -4.253967         0.516532        -2.848582
 C        -2.834404         0.469576        -2.445473
 H         1.482223        -0.244495        -1.186960
 H         1.516183         1.221903        -0.284775
 H         2.204022        -0.111259         0.460358
 H        -3.190821        -1.156849        -0.019455
 H        -2.549026        -0.108823         2.150202
 H        -2.616955         1.822222        -0.586371
 H        -5.310827         0.353790        -0.899187
 H        -4.988292         1.969296        -1.470682
 H        -2.553445        -0.568795        -2.599453
 H        -2.138609         1.070077        -3.027611
