19
Iteration:  1690charge 0 multiplicity 1
 C         1.616040        -0.296240         0.851635
 C         0.281344        -0.000041         0.302961
 C        -0.839645         0.025630        -0.093444
 C        -2.354510         0.089577        -0.358445
 O        -2.932782         0.001850         0.946333
 C        -3.121795         1.051397        -1.285537
 C        -4.671312         1.053306        -1.191086
 O        -4.836180         0.617192        -2.499562
 C        -3.393801         0.398341        -2.682058
 H         2.169758        -0.874858         0.182907
 H         2.208984         0.573533         1.279157
 H         1.326990        -0.937380         1.698136
 H        -2.689982        -0.921037        -0.889001
 H        -2.411322         0.644955         1.471545
 H        -2.568840         2.031053        -1.234136
 H        -5.171793         0.381539        -0.444912
 H        -5.168732         2.131669        -1.093722
 H        -3.280618        -0.642045        -2.636738
 H        -3.025335         1.002112        -3.547157
