19
Iteration:  4063charge 0 multiplicity 1
 C         1.596580        -0.317421         0.136500
 C         0.084615        -0.101925         0.027484
 C        -1.106773         0.073659        -0.025537
 C        -2.561402        -0.085945        -0.162147
 O        -3.252805        -0.345933         1.103007
 C        -3.262446         1.078740        -0.797519
 C        -4.751521         0.764218        -1.247794
 O        -4.248285         0.723407        -2.679193
 C        -2.892730         1.266611        -2.278020
 H         1.800656        -1.084020         0.947123
 H         1.952585        -0.617985        -0.869653
 H         2.197358         0.575274         0.452599
 H        -2.721946        -1.096746        -0.844420
 H        -2.671186        -0.979602         1.602830
 H        -3.310329         1.856791        -0.114498
 H        -5.015448        -0.278483        -0.999138
 H        -5.370372         1.643152        -1.029325
 H        -2.011305         0.739254        -2.592348
 H        -2.827373         2.224688        -2.700835
