19
Iteration:  2275
 C         1.560155        -0.267613         0.608726
 C         0.206827         0.038239         0.256601
 C        -0.935190         0.339130        -0.059380
 C        -2.461764        -0.095959        -0.211768
 O        -2.993547        -0.257725         1.106252
 C        -3.108567         0.944654        -1.140824
 C        -4.589965         1.239434        -1.303005
 O        -4.757410         0.741223        -2.625175
 C        -3.297496         0.387669        -2.588434
 H         2.224831         0.564531         0.645940
 H         1.439051        -0.985343         1.435607
 H         2.021557        -0.950904        -0.073910
 H        -2.519812        -1.183641        -0.689974
 H        -2.231582        -0.489198         1.669121
 H        -2.513273         1.855592        -1.060260
 H        -5.235122         0.891062        -0.516803
 H        -4.813073         2.312491        -1.296459
 H        -2.903304        -0.627888        -2.865964
 H        -2.670059         1.013509        -3.218955
