19
Iteration:   196charge 0 multiplicity 1
 C         1.489435        -0.298851        -0.030401
 C         0.021901        -0.051645         0.082945
 C        -1.230905        -0.132148        -0.066006
 C        -2.706085        -0.025204         0.216475
 O        -2.855774         0.652657         1.498236
 C        -3.535056         0.828996        -0.871202
 C        -4.702232         0.175179        -1.632241
 O        -4.145855         0.633344        -2.939872
 C        -2.837506         1.065808        -2.221393
 H         2.162145         0.417071        -0.270240
 H         1.795985        -0.811080         0.983676
 H         1.432678        -1.003354        -0.862310
 H        -3.091729        -1.087973         0.189457
 H        -2.097015         0.432586         2.083892
 H        -3.761726         1.772981        -0.346738
 H        -4.717235        -0.960097        -1.554052
 H        -5.833729         0.415639        -1.512686
 H        -1.815323         0.552732        -2.489746
 H        -2.749188         2.128438        -2.421848
