19
Iteration:  2994
 C         1.723058        -0.082909         0.532408
 C         0.287414        -0.087063         0.178068
 C        -0.936280        -0.080936         0.077468
 C        -2.412466        -0.227376        -0.189692
 O        -3.256876        -0.360755         0.957395
 C        -3.061748         0.961395        -1.155517
 C        -4.629370         1.135062        -1.146982
 O        -4.712716         0.895920        -2.546592
 C        -3.282508         0.747476        -2.617902
 H         2.424967         0.769803         0.255476
 H         1.641636        -0.346057         1.590681
 H         2.292789        -0.858430        -0.040892
 H        -2.477909        -1.207337        -0.799094
 H        -2.763086         0.137904         1.609258
 H        -2.557086         1.899780        -1.078636
 H        -5.231257         0.418688        -0.539327
 H        -4.981126         2.211243        -1.019268
 H        -3.004641        -0.291923        -3.026092
 H        -2.817446         1.466796        -3.189767
