19
Iteration:  4026
 C         1.478887        -0.385077        -0.014451
 C         0.093652        -0.003344        -0.044826
 C        -1.164013         0.023449         0.002585
 C        -2.623539        -0.062386        -0.017955
 O        -3.206568        -0.236744         1.283863
 C        -3.365645         1.031654        -0.788938
 C        -4.662936         0.548985        -1.404142
 O        -4.098112         0.754374        -2.743515
 C        -2.849648         1.384861        -2.207656
 H         1.610475        -1.376226         0.307056
 H         1.899146        -0.390588        -1.018907
 H         2.134889         0.285365         0.614144
 H        -2.758548        -1.108326        -0.641698
 H        -2.922990        -1.079621         1.672293
 H        -3.318851         1.969292        -0.016108
 H        -5.207013        -0.408495        -1.112719
 H        -5.551727         1.161462        -1.236554
 H        -1.906909         0.864110        -2.558348
 H        -2.695457         2.506420        -2.477194
