19
Iteration:  3190
 C         1.319124        -0.053727        -0.392638
 C        -0.063035        -0.278204        -0.119651
 C        -1.277322        -0.259918         0.070900
 C        -2.719381        -0.162442         0.211953
 O        -3.249454         0.039937         1.595715
 C        -3.365931         0.956185        -0.751323
 C        -4.595288         0.677693        -1.630946
 O        -3.762675         0.572833        -2.824038
 C        -2.762190         1.307333        -2.135587
 H         1.764604        -0.514145        -1.354504
 H         1.620842         0.983816        -0.438353
 H         1.808227        -0.565967         0.437030
 H        -3.181045        -1.237525        -0.133921
 H        -2.600402        -0.006431         2.311733
 H        -3.352940         1.803074        -0.056023
 H        -5.143318        -0.259697        -1.498004
 H        -5.354204         1.459351        -1.595744
 H        -1.650538         0.988337        -2.294763
 H        -2.853758         2.447558        -2.277359
