19
Iteration:  2417charge 0 multiplicity 1
 C         1.389371         0.219054         0.257041
 C        -0.015684        -0.102261         0.128966
 C        -1.178127        -0.224072        -0.227238
 C        -2.613074        -0.346001        -0.002242
 O        -2.935651        -0.063220         1.348297
 C        -3.146145         0.739040        -0.989829
 C        -4.587538         1.010437        -1.302564
 O        -4.285637         1.125613        -2.724890
 C        -3.054022         0.452316        -2.492448
 H         1.713500         0.469394        -0.759243
 H         1.342418         1.044515         1.107083
 H         2.070362        -0.461427         0.751145
 H        -3.044299        -1.380627        -0.219835
 H        -2.168868        -0.504698         1.803024
 H        -2.709510         1.672355        -0.612251
 H        -5.300583         0.230564        -1.111367
 H        -5.113665         1.912937        -1.034620
 H        -3.354761        -0.589648        -2.854208
 H        -2.141010         0.792074        -3.033833
