19
Iteration:  2124
 C         1.369687        -0.126841         0.311185
 C        -0.029330        -0.143935        -0.057870
 C        -1.173603        -0.246374        -0.207643
 C        -2.614756        -0.108854         0.056524
 O        -2.746210         0.552168         1.313950
 C        -3.309631         0.905481        -0.922750
 C        -4.756524         0.615771        -1.382944
 O        -4.278995         0.707581        -2.772134
 C        -2.938517         0.626661        -2.374021
 H         1.344988         0.056813         1.534041
 H         1.882299        -1.036837         0.184973
 H         1.812060         0.714409        -0.198325
 H        -3.221170        -1.101960         0.029536
 H        -2.254051        -0.040478         1.866271
 H        -3.113799         1.964323        -0.702641
 H        -5.087680        -0.425441        -1.116604
 H        -5.433546         1.494892        -1.333823
 H        -2.438989        -0.321050        -2.589220
 H        -2.360281         1.448327        -2.948482
