19
Iteration:  4530charge 0 multiplicity 1
 C         1.368164        -0.058725        -0.371139
 C        -0.059377         0.036354        -0.099185
 C        -1.268395         0.022557         0.139045
 C        -2.682864        -0.273211        -0.113406
 O        -3.312131        -0.753936         1.175531
 C        -3.372131         0.983190        -0.607544
 C        -4.601238         0.769101        -1.452045
 O        -3.762651         0.736336        -2.666275
 C        -2.731073         1.488379        -1.881789
 H         1.626687        -0.870575        -0.999966
 H         1.714572         0.788457        -0.906933
 H         1.896035        -0.222843         0.652545
 H        -2.779664        -1.126255        -0.836671
 H        -3.410376         0.128415         1.638797
 H        -3.622276         1.558879         0.282344
 H        -5.126024        -0.013820        -1.197426
 H        -5.259049         1.673131        -1.480585
 H        -1.667733         1.277498        -2.153945
 H        -2.715660         2.608414        -2.036988
