19
Iteration:  2502
 C         1.359058         0.021309        -0.271634
 C         0.008285        -0.055303         0.201386
 C        -1.201430        -0.055313         0.213110
 C        -2.615881        -0.269403         0.050131
 O        -3.303227        -0.030310         1.299525
 C        -3.110914         0.854785        -0.868720
 C        -4.577722         0.678604        -1.370343
 O        -4.166893         0.912838        -2.744549
 C        -2.780794         0.880614        -2.343365
 H         1.399048        -0.441157        -1.209411
 H         1.756231         1.025696        -0.539634
 H         2.013042        -0.593211         0.386124
 H        -2.679167        -1.221861        -0.401472
 H        -3.006994        -0.635276         1.970566
 H        -3.046630         1.745088        -0.273771
 H        -4.914473        -0.427668        -1.248625
 H        -5.361418         1.303174        -0.895931
 H        -2.216763        -0.069477        -2.814996
 H        -2.105335         1.699574        -2.697213
