19
Iteration:   298
 C         1.091469        -0.047934        -0.757294
 C        -0.079795        -0.066760         0.181296
 C        -1.265109        -0.053153         0.423002
 C        -2.658733        -0.132615         0.342950
 O        -3.369017         0.485237         1.398587
 C        -3.134554         0.814974        -0.811483
 C        -4.517431         0.586744        -1.494170
 O        -3.902530         0.481878        -2.826462
 C        -2.532487         0.774372        -2.234226
 H         0.833667         0.467949        -1.654657
 H         1.949356         0.341076        -0.319275
 H         1.411115        -1.099541        -0.900545
 H        -3.008462        -1.189180         0.173279
 H        -3.015524         0.236334         2.244874
 H        -3.186909         1.757196        -0.267100
 H        -5.095089        -0.370464        -1.344179
 H        -5.147199         1.428414        -1.401214
 H        -1.964113        -0.096002        -2.512896
 H        -1.979292         1.707333        -2.485692
