19
Iteration:   373charge 0 multiplicity 1
 C         1.276530         0.047257        -0.547031
 C        -0.150023         0.125077        -0.232057
 C        -1.267101        -0.015869         0.240189
 C        -2.774022        -0.164490         0.250260
 O        -3.418864         0.275371         1.444275
 C        -3.063257         0.913068        -0.815017
 C        -4.406571         0.990616        -1.439426
 O        -3.979081         0.502887        -2.724902
 C        -2.613773         0.290317        -2.118616
 H         1.551280        -0.130788        -1.514393
 H         1.798005         0.980332        -0.058214
 H         1.641374        -0.683075         0.200842
 H        -3.186925        -1.144996        -0.009124
 H        -3.506630        -0.508157         2.065619
 H        -2.473306         1.746093        -0.562709
 H        -5.124852         0.302318        -0.967204
 H        -4.998282         1.915145        -1.581788
 H        -2.225756        -0.763140        -2.006591
 H        -1.843801         0.769044        -2.656053
