19
Iteration:  1035charge 0 multiplicity 1
 C         1.121626        -0.466287        -0.590127
 C        -0.313587        -0.447914        -0.387592
 C        -1.414075        -0.320088         0.052878
 C        -2.838192        -0.028528         0.471777
 O        -2.706846         0.942257         1.451200
 C        -3.950604         0.459297        -0.713440
 C        -3.748659        -0.218971        -2.115271
 O        -3.185383         0.922414        -2.684512
 C        -3.550542         1.758617        -1.476042
 H         1.632901         0.267932         0.121406
 H         1.516325        -1.320348        -0.138193
 H         1.603672        -0.534941        -1.548750
 H        -3.252897        -1.010927         0.889363
 H        -3.550128         1.454916         1.637791
 H        -4.953902         0.410399        -0.212248
 H        -3.171548        -1.097902        -2.001564
 H        -4.705654        -0.510557        -2.621262
 H        -2.750819         2.448325        -1.160296
 H        -4.430146         2.407372        -1.661542
