19
Iteration:  3511charge 0 multiplicity 1
 C         1.627546        -0.214750         0.644962
 C         0.146556        -0.085580         0.468125
 C        -0.947992        -0.165491        -0.058337
 C        -2.365418        -0.048763        -0.366261
 O        -3.115814        -0.195634         0.863655
 C        -2.977417         1.110816        -1.258774
 C        -4.506521         1.130563        -1.058827
 O        -4.786947         0.728114        -2.437909
 C        -3.373615         0.674596        -2.728277
 H         1.955558        -0.090918         1.784559
 H         2.002397        -1.171441         0.265821
 H         2.177160         0.398632         0.010998
 H        -2.657299        -1.084019        -0.844000
 H        -2.552968         0.159459         1.598188
 H        -2.545858         2.073481        -1.083817
 H        -4.777524         0.323932        -0.300806
 H        -5.138583         2.022813        -0.903127
 H        -2.976459        -0.244495        -3.111968
 H        -3.008003         1.429753        -3.470783
