19
Iteration:  2321
 C         1.647416         0.015929         0.593870
 C         0.152295        -0.111468         0.264192
 C        -1.035663        -0.230549        -0.031008
 C        -2.460493        -0.201826        -0.265338
 O        -3.130461         0.009556         0.962396
 C        -2.992476         0.898989        -1.175816
 C        -4.496493         1.161577        -1.119918
 O        -4.694831         0.791435        -2.554116
 C        -3.315549         0.552563        -2.636012
 H         1.939214         1.016876         0.152643
 H         1.782299        -0.103393         1.611742
 H         2.295471        -0.708428         0.187941
 H        -2.765044        -1.168521        -0.822263
 H        -2.756891        -0.476284         1.745158
 H        -2.275827         1.735209        -1.002731
 H        -5.024535         0.416575        -0.474249
 H        -4.853166         2.128885        -0.748489
 H        -3.107568        -0.521095        -2.803090
 H        -2.744767         1.002783        -3.473714
