19
Iteration:  2006charge 0 multiplicity 1
 C         1.180761        -0.101745        -0.605760
 C        -0.132555        -0.084809        -0.020067
 C        -1.101637        -0.054666         0.660490
 C        -2.608919        -0.058390         0.332991
 O        -3.522825         0.379786         1.275114
 C        -2.932084         0.877096        -0.943440
 C        -4.446424         0.737859        -1.340854
 O        -4.067461         0.597146        -2.702854
 C        -2.679313         0.493460        -2.336248
 H         1.951290        -0.880915        -0.260416
 H         1.032662        -0.510964        -1.664229
 H         1.591554         0.936676        -0.705647
 H        -2.898760        -1.062957         0.183270
 H        -3.654785         1.350890         1.165915
 H        -2.587629         1.948444        -0.758788
 H        -4.778595        -0.385163        -0.943252
 H        -5.101442         1.607459        -1.186634
 H        -2.111906        -0.449429        -2.566932
 H        -2.071442         1.269498        -2.889142
