19
Iteration:  3413charge 0 multiplicity 1
 C         1.355190         0.088280         0.238953
 C         0.011174        -0.221511         0.136103
 C        -1.144446        -0.401768        -0.197223
 C        -2.585496        -0.239726        -0.120477
 O        -2.975322         0.013594         1.274398
 C        -3.200627         0.926811        -0.883695
 C        -4.663245         1.013360        -1.298112
 O        -4.323679         0.966915        -2.737281
 C        -2.915463         0.682258        -2.400947
 H         1.814819        -0.471887         1.222784
 H         2.041318        -0.216153        -0.590853
 H         1.556379         1.147147         0.288222
 H        -3.090390        -1.133341        -0.395851
 H        -2.716673        -0.712830         1.911350
 H        -2.766362         1.823111        -0.584446
 H        -5.193181         0.047287        -1.086196
 H        -5.076946         1.980628        -0.970801
 H        -2.687284        -0.347701        -2.673888
 H        -2.096944         1.186972        -2.941073
