19
Iteration:  3852charge 0 multiplicity 1
 C         1.267953         0.002229        -0.483684
 C        -0.135397        -0.249550        -0.067184
 C        -1.320782        -0.192621         0.220892
 C        -2.774013        -0.249115         0.215193
 O        -3.243979         0.120722         1.500714
 C        -3.295389         0.758076        -0.806620
 C        -4.575286         0.407607        -1.617312
 O        -3.856141         1.078515        -2.792340
 C        -2.536625         1.136461        -2.059820
 H         1.363725        -0.285493        -1.570583
 H         1.326615         1.058909        -0.187315
 H         1.956033        -0.865657         0.001468
 H        -3.022413        -1.303033        -0.069981
 H        -2.900548        -0.556349         2.147295
 H        -3.394446         1.706467        -0.293160
 H        -4.643582        -0.636560        -1.822500
 H        -5.452084         0.919859        -1.259708
 H        -1.782283         0.392131        -2.433586
 H        -2.122716         2.196751        -2.179613
