19
Iteration:  4910charge 0 multiplicity 1
 C         1.532221        -0.217645         0.657075
 C         0.157520        -0.193661         0.132186
 C        -1.007472        -0.076678        -0.297788
 C        -2.484836        -0.202327        -0.494231
 O        -3.100750        -0.474973         0.766516
 C        -3.149665         1.105100        -0.946412
 C        -4.646967         0.989186        -0.981647
 O        -4.518620         0.688732        -2.410970
 C        -3.135126         1.306137        -2.421761
 H         1.909130         0.781912         0.761332
 H         1.542965        -0.627446         1.640663
 H         2.282232        -0.827073        -0.008093
 H        -2.684985        -1.011474        -1.327451
 H        -2.365594        -0.563796         1.408808
 H        -2.588900         1.892291        -0.314823
 H        -5.139476         0.227742        -0.429896
 H        -5.019514         2.101346        -0.817308
 H        -2.464001         0.833969        -3.183241
 H        -3.470571         2.390146        -2.727956
