19
Iteration:  2900charge 0 multiplicity 1
 C         1.318376         0.372839         0.711454
 C         0.139713        -0.231745         0.065714
 C        -0.965523        -0.662513        -0.221411
 C        -2.444643        -0.557226        -0.281945
 O        -2.961166        -0.154441         1.006595
 C        -2.970340         0.769804        -1.237198
 C        -4.440570         1.264252        -1.010858
 O        -4.647728         1.179501        -2.428360
 C        -3.346140         0.649625        -2.716347
 H         1.032193         1.412873         1.050240
 H         1.505214        -0.298396         1.611616
 H         2.241144         0.706817         0.159961
 H        -2.900246        -1.475053        -0.588605
 H        -2.327738        -0.285928         1.737068
 H        -2.307728         1.630289        -0.978828
 H        -5.183523         0.700895        -0.344707
 H        -4.417020         2.334752        -0.702064
 H        -3.457368        -0.430550        -2.935939
 H        -2.650196         1.192015        -3.513718
