19
Iteration:  4142charge 0 multiplicity 1
 C         1.554900         0.017518         0.501243
 C         0.126493        -0.157070         0.035888
 C        -1.066658        -0.238944        -0.202814
 C        -2.492333        -0.323034        -0.352169
 O        -3.269966        -0.428940         0.904339
 C        -3.035580         0.999108        -0.965970
 C        -4.512787         1.120040        -1.016514
 O        -4.527764         0.831431        -2.491362
 C        -3.080992         1.053865        -2.440679
 H         1.472400         0.183326         1.674049
 H         2.154209        -0.913684         0.139119
 H         1.909266         0.955644         0.131623
 H        -2.952768        -1.138965        -1.083067
 H        -2.554576        -0.874746         1.435807
 H        -2.585027         1.726538        -0.387133
 H        -5.062410         0.641143        -0.209164
 H        -4.853830         2.162090        -0.762444
 H        -2.563772         0.271757        -2.992160
 H        -2.840372         2.032239        -2.802381
