19
Iteration:  4977
 C         1.570386        -0.214600         0.440859
 C         0.117780        -0.150473         0.194365
 C        -0.992924        -0.092961        -0.260260
 C        -2.458194        -0.196174        -0.356392
 O        -3.041330        -0.348338         0.965982
 C        -3.234467         0.972792        -0.855190
 C        -4.780409         0.788053        -1.172778
 O        -4.472957         0.945508        -2.599899
 C        -3.034798         1.253955        -2.301875
 H         2.010569         0.489567        -0.242939
 H         1.666231         0.055634         1.448799
 H         1.967756        -1.238523         0.125989
 H        -2.791053        -1.091340        -0.979246
 H        -2.826433        -1.263545         1.267333
 H        -3.210653         1.855791        -0.114334
 H        -5.119952        -0.120329        -1.101713
 H        -5.417362         1.634272        -0.797448
 H        -2.244706         0.590200        -2.749546
 H        -2.768083         2.364787        -2.514314
