19
Iteration:  4090
 C         1.544783        -0.181730         0.228768
 C         0.043291        -0.239861         0.176748
 C        -1.133990         0.001770        -0.052608
 C        -2.506061        -0.168980        -0.213919
 O        -3.170113        -0.412721         1.019400
 C        -3.104662         1.091682        -0.854576
 C        -4.648616         0.927422        -1.215055
 O        -4.395201         0.721370        -2.647378
 C        -3.020249         1.206380        -2.346174
 H         1.948004        -0.580132         1.168615
 H         1.833216        -0.652264        -0.727735
 H         1.935893         0.831923         0.230370
 H        -2.685678        -1.024969        -0.867095
 H        -2.523336        -0.952313         1.554407
 H        -2.956283         1.954033        -0.085670
 H        -5.079125         0.060185        -0.768186
 H        -5.157525         1.898078        -0.966050
 H        -2.118196         0.784410        -2.880868
 H        -2.967241         2.247440        -2.820074
