19
Iteration:   443charge 0 multiplicity 1
 C         1.394767         0.162428         0.037860
 C        -0.003721        -0.307628         0.215043
 C        -1.201885        -0.337815         0.045780
 C        -2.605343        -0.056866         0.024169
 O        -3.050341         0.453335         1.370072
 C        -3.091363         0.864689        -1.067966
 C        -4.610207         0.842317        -1.353411
 O        -4.363895         0.586950        -2.730413
 C        -2.888711         0.479083        -2.473321
 H         1.861548        -0.316072        -0.886099
 H         1.387350         1.179283        -0.089219
 H         2.020003         0.030207         0.918776
 H        -3.208983        -0.992471        -0.105696
 H        -2.189187         0.479569         1.879267
 H        -2.678863         1.949132        -0.780967
 H        -5.057626        -0.047232        -0.847404
 H        -5.245405         1.662847        -1.079466
 H        -2.466042        -0.467117        -2.779856
 H        -2.434850         1.277283        -3.124279
