19
Iteration:  4899
 C         1.537432        -0.198277         0.667206
 C         0.111942        -0.140118         0.214224
 C        -0.979728        -0.144208        -0.357825
 C        -2.406931        -0.141509        -0.548744
 O        -3.112048        -0.534037         0.770004
 C        -3.090120         1.131962        -0.894024
 C        -4.660894         1.033413        -0.992592
 O        -4.550556         0.677523        -2.405608
 C        -3.188926         1.264223        -2.439277
 H         2.020402         0.745892         0.802977
 H         1.610376        -0.844048         1.512942
 H         2.059752        -0.768552        -0.222571
 H        -2.737427        -1.071884        -1.201884
 H        -2.353534        -0.574261         1.415406
 H        -2.725819         2.119875        -0.373762
 H        -5.223634         0.391034        -0.348189
 H        -5.274704         2.079697        -0.948510
 H        -2.418550         0.670402        -3.042064
 H        -2.949714         2.428461        -2.751200
