19
Iteration:   702
 C         1.216557         0.321195         0.217921
 C        -0.099735        -0.059678        -0.120127
 C        -1.180619        -0.532584        -0.108203
 C        -2.647932        -0.207796        -0.031739
 O        -3.129804         0.027749         1.335008
 C        -2.892061         0.994402        -0.983161
 C        -4.366694         1.228954        -1.268629
 O        -4.306412         0.401664        -2.504366
 C        -2.956385         0.531577        -2.533909
 H         1.399062        -0.233769         1.085342
 H         1.977049         0.037482        -0.603470
 H         1.256946         1.398471         0.403385
 H        -3.228912        -1.090519        -0.471785
 H        -2.956281         0.956983         1.654809
 H        -2.325581         1.861721        -0.762205
 H        -5.195927         0.908595        -0.588522
 H        -4.458416         2.307298        -1.613769
 H        -2.543588        -0.491728        -2.796272
 H        -2.535949         1.292020        -3.183487
