19
Iteration:   372
 C         1.268846         0.043262        -0.557164
 C        -0.157836         0.125348        -0.233632
 C        -1.268867        -0.011662         0.245926
 C        -2.776996        -0.150874         0.258534
 O        -3.419026         0.267709         1.434693
 C        -3.063837         0.916502        -0.812415
 C        -4.407104         0.984951        -1.434674
 O        -3.969625         0.503097        -2.718780
 C        -2.607523         0.285587        -2.117235
 H         1.567729        -0.123603        -1.541761
 H         1.815853         0.970803        -0.033434
 H         1.634362        -0.669727         0.207568
 H        -3.186303        -1.120918        -0.015583
 H        -3.508251        -0.502233         2.045107
 H        -2.466009         1.734804        -0.608031
 H        -5.119449         0.297332        -0.953528
 H        -5.013260         1.919096        -1.589149
 H        -2.235048        -0.788730        -2.036319
 H        -1.826124         0.799186        -2.641107
