19
Iteration:  1103charge 0 multiplicity 1
 C         0.818167        -0.878570        -1.078107
 C        -0.325793        -0.356663        -0.329027
 C        -1.310361         0.044732         0.319430
 C        -2.812688         0.103848         0.544827
 O        -3.204070         1.141794         1.376830
 C        -3.663189         0.248022        -0.760960
 C        -3.134961        -0.248866        -2.057894
 O        -3.269589         1.034322        -2.630662
 C        -3.554302         1.640831        -1.269762
 H         1.625446        -0.121591        -0.818293
 H         1.196642        -1.724984        -0.635690
 H         0.514292        -1.198123        -2.084960
 H        -3.058385        -0.934139         0.971724
 H        -3.800535         0.658226         1.937469
 H        -4.772795         0.081201        -0.661427
 H        -2.075847        -0.450452        -1.979362
 H        -3.645015        -1.096717        -2.609049
 H        -2.817096         2.237516        -0.727511
 H        -4.470874         2.297819        -1.267764
