19
Iteration:  3749charge 0 multiplicity 1
 C         1.539118        -0.141057        -0.130845
 C         0.030855         0.008726         0.034836
 C        -1.169648        -0.057264         0.151947
 C        -2.632059        -0.200198         0.114196
 O        -3.259857        -0.202201         1.401460
 C        -3.271442         0.954117        -0.822801
 C        -4.701861         0.796161        -1.453229
 O        -4.140238         1.004010        -2.840707
 C        -2.798691         0.822330        -2.348391
 H         1.780997         0.562281        -0.827692
 H         2.028801         0.000335         0.816378
 H         1.720481        -1.263178        -0.281055
 H        -2.835986        -1.115505        -0.461491
 H        -2.730391        -0.794485         1.984679
 H        -2.947682         1.919873        -0.364673
 H        -5.258732        -0.044116        -1.319636
 H        -5.421658         1.590625        -1.361113
 H        -2.537594        -0.205427        -2.528515
 H        -2.067364         1.496208        -2.700182
