19
Iteration:  2628charge 0 multiplicity 1
 C         1.334433        -0.176431        -0.104147
 C        -0.111792        -0.099018        -0.102301
 C        -1.323128         0.068454        -0.114783
 C        -2.749634        -0.171709         0.104028
 O        -2.931542        -0.155265         1.489203
 C        -3.480619         1.032769        -0.721817
 C        -4.723696         0.729051        -1.643645
 O        -3.820644         0.436754        -2.725213
 C        -2.790740         1.299147        -2.119316
 H         1.490595        -1.303233        -0.068681
 H         1.694396         0.090421        -1.126999
 H         1.883537         0.454967         0.434976
 H        -2.881383        -1.122888        -0.320474
 H        -2.066665        -0.486346         1.882783
 H        -3.542127         1.957033        -0.062565
 H        -5.456370        -0.056034        -1.568811
 H        -5.160651         1.716698        -1.879406
 H        -1.845010         0.761375        -2.338543
 H        -2.643140         2.442356        -2.270097
