19
Iteration:  4725charge 0 multiplicity 1
 C         1.542468         0.175024         0.272255
 C         0.094763        -0.046726        -0.015530
 C        -1.054859        -0.435494        -0.107971
 C        -2.562028        -0.485174        -0.195772
 O        -3.161129        -0.429937         1.150538
 C        -3.171411         0.790936        -0.888466
 C        -4.693123         0.860921        -1.275686
 O        -4.341787         1.483985        -2.571483
 C        -2.948572         0.942752        -2.372037
 H         1.688701        -0.068044         1.302384
 H         2.271155        -0.312687        -0.327791
 H         1.714359         1.331240         0.126133
 H        -2.842028        -1.414860        -0.751050
 H        -3.326708        -1.306747         1.561423
 H        -3.185186         1.679035        -0.193284
 H        -5.050274        -0.314820        -1.413623
 H        -5.304057         1.446325        -0.612683
 H        -2.757877        -0.050782        -2.828198
 H        -2.358982         1.689042        -2.660912
