19
Iteration:  2086
 C         1.358941        -0.135335         0.020662
 C        -0.045853        -0.082982        -0.165825
 C        -1.290919        -0.066791        -0.060328
 C        -2.708169        -0.024667         0.218150
 O        -2.848808         0.417775         1.620127
 C        -3.336546         0.885623        -0.871316
 C        -4.761918         0.685413        -1.571057
 O        -4.095124         0.698940        -2.903869
 C        -2.840703         0.463986        -2.322789
 H         1.514791        -0.213884         1.041637
 H         1.860844        -0.993215        -0.596503
 H         2.077386         0.713176        -0.213229
 H        -3.056535        -0.974104         0.150259
 H        -2.024087         0.378300         2.141702
 H        -3.137674         1.940514        -0.614369
 H        -5.310871        -0.382247        -1.206093
 H        -5.474716         1.544860        -1.598428
 H        -2.457378        -0.567333        -2.410480
 H        -2.096586         1.154357        -2.652633
