19
Iteration:   440charge 0 multiplicity 1
 C         1.352348         0.147678        -0.007885
 C         0.007940        -0.299250         0.221131
 C        -1.193724        -0.325755         0.072767
 C        -2.619097        -0.060681         0.072345
 O        -3.036990         0.435371         1.360162
 C        -3.085749         0.880203        -1.036421
 C        -4.605103         0.851931        -1.372482
 O        -4.344935         0.584618        -2.736341
 C        -2.889326         0.480229        -2.503677
 H         1.819837        -0.253152        -0.877171
 H         1.407162         1.251341        -0.064499
 H         1.961142         0.041078         0.896893
 H        -3.136418        -1.011357        -0.089467
 H        -2.253695         0.416000         1.895918
 H        -2.794387         1.878315        -0.744452
 H        -5.127953        -0.009460        -0.891999
 H        -5.191044         1.744909        -1.111050
 H        -2.394795        -0.506201        -2.678323
 H        -2.502009         1.190748        -3.189433
