19
Iteration:  3079charge 0 multiplicity 1
 C         1.591617        -0.318716         0.267295
 C         0.134078        -0.100147         0.046786
 C        -1.062797         0.026582        -0.124232
 C        -2.568092        -0.075530        -0.085561
 O        -3.176387        -0.063716         1.222193
 C        -3.252217         1.087401        -0.864542
 C        -4.719916         0.748627        -1.264675
 O        -4.353781         0.594121        -2.723978
 C        -2.958483         1.077668        -2.436363
 H         2.032043         0.251975        -0.573740
 H         2.044534         0.169386         1.101461
 H         1.846996        -1.309074         0.342965
 H        -2.708966        -0.961256        -0.690606
 H        -2.702031        -0.737600         1.786237
 H        -3.036635         2.112911        -0.411557
 H        -5.109856        -0.211987        -0.884494
 H        -5.546659         1.460881        -1.100551
 H        -2.229945         0.356586        -2.858766
 H        -2.794816         2.188117        -2.678072
