19
Iteration:  2724
 C         1.604179        -0.162637         0.087598
 C         0.105347        -0.128092         0.084240
 C        -1.113445         0.042657         0.123725
 C        -2.529911        -0.251537        -0.041256
 O        -3.253934        -0.274863         1.253595
 C        -3.174173         0.888660        -0.935843
 C        -4.707593         0.713806        -1.260905
 O        -4.351823         0.902634        -2.772241
 C        -2.916569         1.123046        -2.407769
 H         2.065751        -0.696095         0.887040
 H         1.907593        -0.717034        -0.866822
 H         2.034937         0.819117        -0.178487
 H        -2.809217        -1.221519        -0.584573
 H        -3.123752         0.599337         1.674328
 H        -2.964910         1.826685        -0.406292
 H        -5.124603        -0.241971        -0.863532
 H        -5.307550         1.581487        -1.028213
 H        -2.292519         0.359599        -3.003187
 H        -2.626275         2.086147        -2.653442
