19
Iteration:  3860charge 0 multiplicity 1
 C         1.197929        -0.023418        -0.463664
 C        -0.141185        -0.266203        -0.074905
 C        -1.335312        -0.209587         0.154173
 C        -2.719296        -0.215838         0.211816
 O        -3.208751         0.110092         1.515454
 C        -3.334076         0.762105        -0.770651
 C        -4.552992         0.435532        -1.634444
 O        -3.813294         1.047632        -2.804318
 C        -2.588445         1.145325        -2.044645
 H         1.413073        -0.155142        -1.503883
 H         1.516150         1.045422        -0.376419
 H         2.179236        -0.572242         0.112136
 H        -3.010873        -1.190257        -0.030633
 H        -3.025340        -0.521875         2.245123
 H        -3.543332         1.774711        -0.249752
 H        -4.823213        -0.605447        -2.085009
 H        -5.490301         0.865351        -1.258927
 H        -1.814839         0.430336        -2.193302
 H        -2.074215         2.038416        -2.087450
