19
Iteration:  1766
 C         1.489110        -0.588398         0.574033
 C         0.209056         0.149957         0.161049
 C        -0.932340         0.291650        -0.055041
 C        -2.341300         0.083022        -0.151510
 O        -3.026509         0.273889         1.114596
 C        -3.191190         0.972093        -1.160783
 C        -4.631153         0.647415        -1.234931
 O        -4.653447         0.724485        -2.656855
 C        -3.243556         0.457952        -2.605369
 H         1.779381        -1.403218        -0.080760
 H         2.410852         0.107262         0.489407
 H         1.371345        -0.782160         1.645852
 H        -2.441893        -0.914801        -0.436201
 H        -2.413639         0.575331         1.840802
 H        -2.832532         2.018388        -1.021650
 H        -4.938284        -0.310715        -0.841173
 H        -5.341804         1.361131        -0.688399
 H        -2.992064        -0.677160        -2.642255
 H        -2.745989         1.067685        -3.456117
