19
Iteration:  4017charge 0 multiplicity 1
 C         1.480229        -0.389351        -0.071754
 C         0.021122        -0.062695        -0.021899
 C        -1.166653         0.114022        -0.004343
 C        -2.642575        -0.151803        -0.002180
 O        -3.188931        -0.191033         1.317791
 C        -3.343906         0.999634        -0.761136
 C        -4.614416         0.555003        -1.439448
 O        -4.083895         0.753098        -2.763104
 C        -2.860269         1.394676        -2.175501
 H         1.618706        -1.365472         0.295487
 H         1.774273        -0.156363        -1.064812
 H         2.031995         0.293375         0.681663
 H        -2.973632        -1.113092        -0.614057
 H        -2.864162        -1.049958         1.623208
 H        -3.390783         1.919675        -0.110922
 H        -4.859830        -0.576703        -1.221329
 H        -5.364046         1.324156        -1.374107
 H        -2.018045         0.914881        -2.608381
 H        -2.781192         2.464801        -2.291919
