19
Iteration:  3343charge 0 multiplicity 1
 C         1.351664         0.011589        -0.325827
 C        -0.039652        -0.087565        -0.050499
 C        -1.236377        -0.320344         0.175146
 C        -2.748826        -0.255501         0.174265
 O        -3.324371        -0.044216         1.496956
 C        -3.179676         0.861465        -0.826442
 C        -4.558737         0.695501        -1.470940
 O        -4.017764         1.111723        -2.750477
 C        -2.667344         0.776726        -2.287337
 H         1.885901        -0.939995         0.052832
 H         1.688142         0.170887        -1.371176
 H         1.948892         0.826403         0.165937
 H        -3.062169        -1.171254        -0.337823
 H        -3.205750         0.952274         1.508536
 H        -3.228891         1.885489        -0.301828
 H        -4.688228        -0.411784        -1.477913
 H        -5.365389         1.296455        -1.069642
 H        -2.318548        -0.191764        -2.527269
 H        -1.946754         1.481683        -2.758091
