19
Iteration:  1493
 C         1.380002         0.077255        -0.353547
 C        -0.009653        -0.065482         0.144482
 C        -1.197204        -0.183445         0.304000
 C        -2.661291        -0.230154         0.096140
 O        -3.407576        -0.098040         1.379341
 C        -3.106189         0.889654        -0.910169
 C        -4.562024         0.763491        -1.367521
 O        -4.115615         0.970984        -2.772451
 C        -2.708677         0.693762        -2.346744
 H         1.515705         0.249671        -1.422926
 H         2.014434         0.840476         0.373467
 H         1.901666        -0.939368        -0.262945
 H        -2.940883        -1.216324        -0.183030
 H        -3.150264         0.789057         1.778198
 H        -2.623821         1.804174        -0.474095
 H        -5.025965        -0.254074        -1.196006
 H        -5.369387         1.460164        -1.093217
 H        -2.289764        -0.275228        -2.638058
 H        -1.999532         1.391766        -2.906415
