19
Iteration:  4819charge 0 multiplicity 1
 C         1.672436        -0.086780         0.531466
 C         0.244786        -0.038268         0.144392
 C        -0.963473        -0.184377        -0.101090
 C        -2.462899        -0.327927        -0.372499
 O        -3.245363        -0.705858         0.789873
 C        -3.083945         1.053968        -0.910557
 C        -4.632604         1.131947        -1.015503
 O        -4.587259         1.003893        -2.489486
 C        -3.222330         1.033569        -2.512748
 H         1.782048         0.559715         1.462555
 H         2.135265        -1.087609         0.812511
 H         2.325631         0.336411        -0.180318
 H        -2.592299        -1.277357        -1.111282
 H        -3.227582         0.082645         1.385794
 H        -2.589450         1.949924        -0.657971
 H        -5.199917         0.350609        -0.621533
 H        -5.074780         2.212134        -0.742288
 H        -2.656342         0.176231        -2.819143
 H        -2.927777         2.082203        -3.033451
