19
Iteration:  3425
 C         1.505040         0.073368         0.364820
 C         0.000069        -0.187258         0.082904
 C        -1.170877        -0.417228        -0.179518
 C        -2.657296        -0.229957        -0.133377
 O        -2.935876        -0.009314         1.240376
 C        -3.099132         0.990154        -0.956911
 C        -4.663202         1.003521        -1.286001
 O        -4.366149         0.958907        -2.693544
 C        -2.983759         0.648805        -2.444850
 H         1.895794        -0.293450         1.410845
 H         2.067481        -0.420968        -0.468949
 H         1.601023         1.157736         0.427868
 H        -3.126490        -1.042538        -0.586741
 H        -2.876975        -0.910621         1.576113
 H        -2.778792         1.868664        -0.539037
 H        -5.288104         0.247658        -0.773291
 H        -5.277534         1.923154        -1.115799
 H        -2.850420        -0.436819        -2.492267
 H        -2.412133         1.299610        -3.085594
