19
Iteration:  1473charge 0 multiplicity 1
 C         1.407997        -0.078594        -0.377540
 C         0.059285        -0.050298         0.031235
 C        -1.158738        -0.180764         0.385156
 C        -2.613998        -0.053259         0.223676
 O        -3.459911        -0.056148         1.351973
 C        -3.217516         0.927555        -0.798941
 C        -4.560566         0.533783        -1.519009
 O        -4.060229         1.001797        -2.781454
 C        -2.765943         0.809695        -2.310113
 H         1.494651         0.239924        -1.420195
 H         2.000271         0.622367         0.261603
 H         2.028186        -0.986128        -0.464354
 H        -2.819830        -1.121283        -0.119633
 H        -3.059776         0.577743         1.956038
 H        -3.393362         1.970086        -0.388394
 H        -4.773002        -0.566543        -1.677625
 H        -5.367742         1.118659        -1.104102
 H        -2.347956        -0.195024        -2.625498
 H        -1.963094         1.476895        -2.673742
