19
Iteration:  4469
 C         1.413456        -0.029027        -0.106200
 C        -0.010153        -0.131493        -0.060439
 C        -1.232656        -0.101989        -0.026473
 C        -2.607202        -0.276333        -0.192850
 O        -3.247841        -0.529013         1.141498
 C        -3.321969         0.986940        -0.642825
 C        -4.683090         0.723834        -1.416988
 O        -3.921769         0.824992        -2.646540
 C        -2.833078         1.480947        -1.992236
 H         1.812935        -0.384971        -1.116501
 H         1.736621         1.015313         0.192049
 H         1.965722        -0.560506         0.616944
 H        -2.686845        -1.046835        -0.853189
 H        -2.612992        -1.094547         1.658872
 H        -3.293128         1.768784         0.180547
 H        -5.169607        -0.367598        -1.142895
 H        -5.410355         1.532004        -1.254956
 H        -1.950608         1.064772        -2.447162
 H        -3.090593         2.648088        -2.026576
