19
Iteration:  4388charge 0 multiplicity 1
 C         1.487308        -0.017521         0.329979
 C         0.067163        -0.135023        -0.010547
 C        -1.096293        -0.093914        -0.163930
 C        -2.518925        -0.333910        -0.238207
 O        -3.124768        -0.459198         1.053502
 C        -3.183385         0.919291        -0.866418
 C        -4.711373         0.686281        -1.218504
 O        -4.381375         1.213337        -2.569251
 C        -2.909546         1.172588        -2.287601
 H         1.984221         0.493404        -0.457323
 H         1.638070         0.613032         1.185060
 H         1.826820        -1.149943         0.407161
 H        -2.757556        -1.186760        -0.787804
 H        -2.621244        -1.204355         1.465315
 H        -2.880048         1.791609        -0.211094
 H        -4.972305        -0.492627        -1.099818
 H        -5.515625         1.408705        -0.685278
 H        -2.436948         0.350671        -2.989517
 H        -2.503643         2.101072        -2.644467
