19
Iteration:  4327charge 0 multiplicity 1
 C         1.588891        -0.012613         0.488517
 C         0.181666        -0.060705         0.210774
 C        -0.999145        -0.171876        -0.014469
 C        -2.428624        -0.321004        -0.325125
 O        -3.026495        -0.696045         1.058503
 C        -3.135629         0.836422        -1.044033
 C        -4.684856         0.896687        -1.195476
 O        -4.589920         1.461165        -2.512657
 C        -3.235112         0.934083        -2.607627
 H         2.109947         0.861628        -0.009512
 H         1.833347        -0.167180         1.568409
 H         2.135162        -0.768334         0.107204
 H        -2.451770        -1.368893        -0.947161
 H        -3.102349         0.085186         1.676509
 H        -2.702423         1.787125        -0.891372
 H        -5.262584         0.008581        -1.044106
 H        -5.118671         1.624076        -0.577427
 H        -3.175714        -0.105761        -3.144661
 H        -2.566947         1.747555        -3.149535
