19
Iteration:  1641charge 0 multiplicity 1
 C         1.445937         0.123597         0.743894
 C         0.121028        -0.206944         0.210723
 C        -1.062271        -0.297798        -0.085371
 C        -2.451934        -0.244564        -0.272172
 O        -3.051971         0.095534         0.958996
 C        -2.879226         0.828100        -1.335843
 C        -4.348181         1.228553        -1.057288
 O        -4.742792         0.573786        -2.392410
 C        -3.348708         0.604284        -2.748808
 H         2.216411        -0.024571        -0.167380
 H         1.358905         1.172722         0.993993
 H         1.844493        -0.472767         1.603290
 H        -2.914959        -1.228429        -0.659877
 H        -2.429541         0.740268         1.331136
 H        -2.213149         1.675692        -1.153860
 H        -4.854018         0.716985        -0.240384
 H        -4.583284         2.281237        -1.150401
 H        -3.000637        -0.351658        -3.300839
 H        -3.152795         1.498826        -3.312240
