19
Iteration:  3813
 C         1.340711        -0.074706        -0.447498
 C        -0.033350        -0.056507        -0.028616
 C        -1.176299        -0.269293         0.274122
 C        -2.715198        -0.200010         0.215007
 O        -3.453075         0.003270         1.466362
 C        -3.234433         0.854782        -0.815468
 C        -4.542258         0.434898        -1.543533
 O        -4.009595         1.166033        -2.784115
 C        -2.586208         0.992736        -2.208607
 H         1.571254         0.092452        -1.551901
 H         2.051414         0.632757        -0.006389
 H         1.868710        -1.095310        -0.185217
 H        -3.089353        -1.178862        -0.099226
 H        -2.864571        -0.117088         2.202509
 H        -3.414379         1.835193        -0.288955
 H        -4.677628        -0.741154        -1.541893
 H        -5.561648         0.913490        -1.349666
 H        -2.031536         0.143805        -2.640838
 H        -1.803651         1.796904        -2.315002
