19
Iteration:  2621charge 0 multiplicity 1
 C         1.329895        -0.229956        -0.161416
 C        -0.096631         0.018029        -0.119141
 C        -1.306705         0.029210        -0.107449
 C        -2.706929        -0.096050         0.110122
 O        -2.964830        -0.173476         1.529300
 C        -3.507354         1.014939        -0.725927
 C        -4.765128         0.738995        -1.671638
 O        -3.787833         0.436134        -2.722316
 C        -2.752561         1.265857        -2.073612
 H         1.636915        -1.318146        -0.159962
 H         1.617769         0.093309        -1.153244
 H         1.944853         0.420251         0.671701
 H        -3.169319        -1.021656        -0.454885
 H        -2.236093        -0.698693         1.964390
 H        -3.565836         1.927075        -0.149671
 H        -5.489598        -0.080743        -1.639692
 H        -5.367287         1.676586        -1.758619
 H        -1.813276         0.794780        -2.307122
 H        -2.551210         2.260316        -2.452188
