19
Iteration:   120charge 0 multiplicity 1
 C         1.518711        -0.473719         0.394078
 C         0.179941        -0.240945         0.068959
 C        -0.998925        -0.006980        -0.081991
 C        -2.477737         0.131147         0.067815
 O        -2.892042         0.574649         1.325566
 C        -3.412673         0.882975        -0.984995
 C        -4.555205         0.004085        -1.531848
 O        -4.598251         0.783205        -2.810178
 C        -3.150937         1.145992        -2.430543
 H         1.848687         0.286303         0.999975
 H         1.606962        -1.470346         1.050043
 H         2.114564        -0.421546        -0.532168
 H        -2.809216        -0.906697        -0.033248
 H        -2.325397         1.323726         1.656535
 H        -3.641341         1.860099        -0.522212
 H        -4.047428        -0.930458        -1.770889
 H        -5.526772        -0.081063        -1.015387
 H        -2.568118         0.361972        -2.953956
 H        -2.763143         2.119321        -2.674758
