19
Iteration:  4680charge 0 multiplicity 1
 C         1.412208         0.183461         0.059249
 C        -0.026192        -0.108052        -0.049260
 C        -1.221789        -0.231261        -0.102202
 C        -2.652641        -0.403201        -0.058709
 O        -3.048024        -0.516383         1.327301
 C        -3.258861         0.748145        -0.808858
 C        -4.652153         0.713691        -1.397831
 O        -4.158486         1.463287        -2.653030
 C        -2.779736         1.049967        -2.259344
 H         1.812421        -0.481782         0.833709
 H         1.930687         0.028243        -0.896289
 H         1.537154         1.293331         0.300129
 H        -3.035854        -1.307352        -0.687504
 H        -3.443459        -1.424861         1.399590
 H        -3.022412         1.713915        -0.167651
 H        -5.028373        -0.315459        -1.703604
 H        -5.339912         1.327193        -0.907606
 H        -2.651177         0.066535        -2.733810
 H        -2.010526         1.685167        -2.343802
