19
Iteration:  3328charge 0 multiplicity 1
 C         1.378855        -0.057091        -0.442022
 C        -0.062134        -0.136055         0.012956
 C        -1.289775        -0.087537         0.113294
 C        -2.730930        -0.195648         0.173660
 O        -3.390315        -0.060030         1.446907
 C        -3.190721         0.819571        -0.786530
 C        -4.531079         0.602173        -1.458435
 O        -3.942044         1.098463        -2.725358
 C        -2.620136         0.800807        -2.187085
 H         1.914831        -0.925323        -0.294074
 H         1.249886         0.325298        -1.493623
 H         1.908282         0.804831         0.103207
 H        -3.136016        -1.316491        -0.039981
 H        -3.519230         0.857898         1.686243
 H        -2.913569         1.844247        -0.372000
 H        -4.907412        -0.426230        -1.556025
 H        -5.427413         1.215458        -1.216130
 H        -2.245570        -0.248370        -2.579450
 H        -1.765350         1.461787        -2.405401
