19
Iteration:   410charge 0 multiplicity 1
 C         1.373538         0.159038        -0.282385
 C        -0.002868        -0.118016         0.092252
 C        -1.221742        -0.238499         0.236728
 C        -2.748663        -0.136405         0.180282
 O        -3.160310         0.367087         1.524609
 C        -3.100269         0.792440        -0.974881
 C        -4.572810         1.041634        -1.507610
 O        -4.226707         0.527434        -2.816234
 C        -2.776805         0.391552        -2.351258
 H         1.675075        -0.208231        -1.320873
 H         1.537659         1.170803        -0.283718
 H         2.090940        -0.289602         0.432013
 H        -3.137874        -1.173530         0.000210
 H        -2.721105        -0.266840         2.153897
 H        -2.632416         1.834904        -0.686419
 H        -5.243219         0.301224        -1.039082
 H        -4.941404         2.045675        -1.430172
 H        -2.240389        -0.526039        -2.511801
 H        -2.317137         1.255026        -2.882423
