19
Iteration:  3665
 C         1.513555         0.010424         0.461207
 C         0.124076        -0.299239         0.085389
 C        -1.048781        -0.478306        -0.064056
 C        -2.551474        -0.237421        -0.249970
 O        -3.151087        -0.040772         1.105818
 C        -3.076102         1.055721        -1.032224
 C        -4.638412         1.053269        -1.168699
 O        -4.509384         0.670966        -2.532897
 C        -3.046451         1.030441        -2.613816
 H         1.904824         1.091610         0.481803
 H         1.700684        -0.257730         1.504884
 H         2.263823        -0.240892        -0.170758
 H        -2.942441        -1.108403        -0.589589
 H        -2.456622        -0.423145         1.636276
 H        -2.528841         1.913671        -0.679443
 H        -5.112073         0.326404        -0.367776
 H        -5.042525         2.045657        -1.223732
 H        -2.444427         0.108206        -3.008141
 H        -2.816623         1.986432        -3.296123
