19
Iteration:   840charge 0 multiplicity 1
 C         1.270361        -0.294621        -0.523850
 C        -0.069924         0.233777        -0.105267
 C        -1.162277         0.066498         0.340888
 C        -2.625905        -0.178948         0.239208
 O        -3.313662         0.268417         1.607255
 C        -3.343645         0.675483        -0.773929
 C        -4.453889         0.199703        -1.621327
 O        -3.980723         0.981830        -2.860289
 C        -2.647490         1.024169        -2.140556
 H         1.957323        -0.084921         0.434399
 H         1.372501        -1.385220        -0.594689
 H         1.911699         0.149147        -1.307880
 H        -2.732352        -1.323920        -0.041613
 H        -4.175514        -0.228844         1.656411
 H        -3.698961         1.686513        -0.367452
 H        -4.383602        -0.872062        -1.973295
 H        -5.465142         0.323117        -1.263786
 H        -2.132889         0.170212        -2.570711
 H        -2.254114         2.037080        -2.414926
