19
Iteration:  4312charge 0 multiplicity 1
 C         1.628148         0.009624         0.529331
 C         0.165213        -0.103529         0.248887
 C        -1.004099        -0.059800        -0.110859
 C        -2.445553        -0.403051        -0.269231
 O        -3.078044        -0.681938         0.968196
 C        -3.081567         0.797046        -1.110239
 C        -4.628636         0.982483        -1.068699
 O        -4.589924         1.430266        -2.483460
 C        -3.235427         0.885783        -2.661529
 H         1.952548         0.974034         0.283859
 H         1.782771        -0.098902         1.576789
 H         2.176150        -0.772993        -0.181447
 H        -2.656614        -1.319557        -0.829615
 H        -3.163046         0.211525         1.361018
 H        -2.646638         1.717400        -0.530101
 H        -5.038556         0.007003        -1.096741
 H        -5.177025         1.566973        -0.312480
 H        -3.416789        -0.041099        -3.103031
 H        -2.617845         1.636036        -3.147287
