19
Iteration:  1163charge 0 multiplicity 1
 C         0.600794        -0.844742        -1.128265
 C        -0.338373        -0.364591        -0.191287
 C        -1.328507         0.068976         0.394447
 C        -2.802959         0.018421         0.559301
 O        -3.247190         1.043437         1.510144
 C        -3.626275         0.273411        -0.754575
 C        -2.926933        -0.158933        -2.032786
 O        -3.293324         1.031535        -2.736013
 C        -3.594646         1.654511        -1.438680
 H         1.356948        -0.284908        -1.577162
 H         1.044494        -1.767322        -0.546700
 H         0.148404        -1.229902        -2.038392
 H        -3.076114        -0.913882         1.019525
 H        -2.438310         1.407389         1.849251
 H        -4.641839        -0.085795        -0.621652
 H        -1.768657        -0.243360        -1.847850
 H        -3.245215        -1.126672        -2.488908
 H        -2.719825         2.227007        -0.996308
 H        -4.500403         2.254935        -1.542997
