19
Iteration:  2187charge 0 multiplicity 1
 C         1.625772        -0.245665         0.465981
 C         0.204442        -0.298013         0.330030
 C        -0.961605        -0.019337         0.077870
 C        -2.478828        -0.055948        -0.178919
 O        -3.044776         0.406411         1.053007
 C        -3.135049         0.876724        -1.181248
 C        -4.608734         0.701158        -1.156977
 O        -4.680225         0.669737        -2.688709
 C        -3.216590         0.779308        -2.679800
 H         1.853282         0.424504         1.291764
 H         2.123574        -1.180012         0.783503
 H         2.067852         0.186090        -0.427774
 H        -2.835180        -1.135810        -0.441371
 H        -2.633357         0.027228         1.839996
 H        -2.802728         1.884618        -0.936676
 H        -5.095331        -0.165881        -0.632138
 H        -5.207942         1.444078        -0.629505
 H        -2.739346        -0.091327        -3.117118
 H        -3.003863         1.696198        -3.219251
