19
Iteration:  4274charge 0 multiplicity 1
 C         1.572533         0.092740         0.594815
 C         0.176231        -0.027158         0.156351
 C        -0.976348        -0.352014        -0.067218
 C        -2.454275        -0.382086        -0.404722
 O        -3.197611        -0.558235         0.766465
 C        -3.018460         0.916140        -1.055455
 C        -4.528540         1.038050        -0.951701
 O        -4.596712         1.352093        -2.388816
 C        -3.284392         0.796419        -2.615663
 H         1.884550         1.186329         0.857403
 H         1.752349        -0.500131         1.561107
 H         2.316033        -0.320389        -0.069943
 H        -2.639283        -1.225027        -1.025092
 H        -2.714953        -0.194150         1.551895
 H        -2.465152         1.778445        -0.921890
 H        -5.026698        -0.056471        -0.786980
 H        -4.995200         1.814425        -0.204931
 H        -3.214421        -0.274749        -2.974488
 H        -2.753152         1.264768        -3.442967
