19
Iteration:  1915
 C         1.277037         0.007848        -0.436851
 C        -0.172174        -0.093080        -0.199813
 C        -1.309056        -0.131011         0.107780
 C        -2.829768        -0.031089         0.352012
 O        -3.205797         0.317234         1.691235
 C        -3.176499         0.968433        -0.861644
 C        -4.534943         1.054906        -1.611237
 O        -3.933459         0.345883        -2.809842
 C        -2.656950         0.430573        -2.181201
 H         1.673203        -1.119849        -0.206137
 H         1.562156         0.368819        -1.379291
 H         1.826715         0.595320         0.312585
 H        -3.328200        -0.850254         0.032368
 H        -2.521283         0.054086         2.358392
 H        -2.818515         1.978363        -0.688006
 H        -5.447020         0.402864        -1.293863
 H        -4.583803         2.089381        -1.844924
 H        -2.064259        -0.548591        -2.141313
 H        -1.958430         1.094780        -2.794359
