19
Iteration:  2262charge 0 multiplicity 1
 C         1.492877        -0.375844         0.600231
 C         0.152249         0.085145         0.142236
 C        -1.031835         0.382562         0.003951
 C        -2.342338        -0.040120        -0.219948
 O        -2.990900        -0.219167         1.070287
 C        -3.115903         0.888769        -1.148952
 C        -4.635473         1.226169        -1.203136
 O        -4.680174         0.689056        -2.601658
 C        -3.216000         0.429403        -2.609064
 H         2.053511         0.426425         0.947730
 H         1.543877        -0.952652         1.613836
 H         2.005731        -0.821203        -0.290286
 H        -2.247819        -1.012342        -0.793411
 H        -2.287402        -0.315315         1.741715
 H        -2.580276         1.834593        -1.179264
 H        -5.324196         0.686824        -0.589455
 H        -4.787435         2.324969        -1.179061
 H        -3.237210        -0.708915        -2.714393
 H        -2.768404         1.028351        -3.372011
