19
Iteration:   934
 C         1.245175        -0.190509        -0.201374
 C        -0.209029        -0.166619        -0.353782
 C        -1.442391        -0.384499        -0.147607
 C        -2.773813        -0.173447         0.353329
 O        -2.763344         0.593393         1.536985
 C        -3.583442         0.702932        -0.660585
 C        -4.305366         0.026062        -1.843110
 O        -3.649872         0.712829        -2.874272
 C        -3.007977         1.605342        -1.893021
 H         1.486760         0.356439         0.763732
 H         1.605902        -1.257130         0.066150
 H         1.899669         0.157800        -1.015077
 H        -3.278391        -1.175962         0.592701
 H        -3.520530         0.344916         2.032509
 H        -4.224119         1.272355        -0.002771
 H        -4.142502        -1.011169        -2.037738
 H        -5.443607         0.251212        -1.771447
 H        -1.919614         1.787233        -2.071253
 H        -3.610444         2.512753        -1.740699
