19
Iteration:  4922
 C         1.472289        -0.214684         0.644398
 C         0.166595        -0.229605         0.018458
 C        -1.015578        -0.068243        -0.207473
 C        -2.451985        -0.213143        -0.426947
 O        -3.093023        -0.463338         0.806723
 C        -3.030396         1.101496        -0.909661
 C        -4.582950         0.987415        -1.034609
 O        -4.505976         0.686801        -2.467480
 C        -3.286246         1.370512        -2.459081
 H         1.836043         0.789775         0.592086
 H         1.410734        -0.505348         1.660499
 H         2.289006        -0.885857         0.134843
 H        -2.730490        -1.142475        -1.104541
 H        -2.446831        -0.722302         1.461515
 H        -2.811089         1.965016        -0.157278
 H        -4.978921         0.076357        -0.538466
 H        -5.334745         1.815423        -0.756841
 H        -2.457328         0.844435        -3.047457
 H        -3.170567         2.526923        -2.717355
