19
Iteration:  4967charge 0 multiplicity 1
 C         1.538583        -0.184854         0.492560
 C         0.183886        -0.203798         0.120449
 C        -0.982507        -0.134606        -0.253201
 C        -2.471534        -0.207566        -0.378488
 O        -3.063996        -0.375806         0.964265
 C        -3.213467         1.098448        -0.812190
 C        -4.725996         0.786784        -1.178530
 O        -4.492958         0.905622        -2.603685
 C        -3.109833         1.291835        -2.339597
 H         2.188931         0.569443         0.057846
 H         1.755735        -0.110915         1.536936
 H         2.018242        -1.189320         0.311593
 H        -2.764335        -1.029269        -1.180065
 H        -2.868243        -1.184658         1.458557
 H        -2.918067         1.960439        -0.073301
 H        -5.126461        -0.168790        -0.779642
 H        -5.468188         1.500471        -0.813695
 H        -2.283175         0.609223        -2.829007
 H        -2.969290         2.368403        -2.809748
