19
Iteration:  1397
 C         1.376744        -0.398933        -0.284261
 C         0.001735         0.032904        -0.067995
 C        -1.273658        -0.062330         0.041630
 C        -2.747624        -0.015806         0.241554
 O        -3.045862         0.151797         1.631033
 C        -3.612105         0.850452        -0.741220
 C        -4.485713         0.154459        -1.833003
 O        -3.839241         0.880568        -2.920350
 C        -2.892336         1.388939        -2.018675
 H         1.983754        -0.038814        -1.126556
 H         1.897637        -0.213407         0.581816
 H         1.374955        -1.491225        -0.446920
 H        -3.041380        -1.137178         0.045332
 H        -2.133144         0.134730         2.053440
 H        -4.342432         1.469970        -0.121609
 H        -4.463117        -0.975278        -1.849277
 H        -5.580063         0.201739        -1.894269
 H        -1.888599         0.848289        -2.066856
 H        -2.753420         2.466088        -2.123513
