19
Iteration:  4968
 C         1.534410        -0.189940         0.482698
 C         0.185421        -0.199722         0.132613
 C        -0.982058        -0.129298        -0.254881
 C        -2.468926        -0.206348        -0.381512
 O        -3.061298        -0.372434         0.964940
 C        -3.210941         1.086078        -0.814548
 C        -4.735452         0.796502        -1.181163
 O        -4.493646         0.910299        -2.603397
 C        -3.102959         1.285870        -2.333718
 H         2.192855         0.568888         0.014697
 H         1.748609        -0.095350         1.558070
 H         1.999907        -1.166572         0.297631
 H        -2.782439        -1.033172        -1.181978
 H        -2.881894        -1.194820         1.468191
 H        -2.961202         1.941075        -0.076040
 H        -5.153383        -0.257853        -0.786733
 H        -5.444190         1.501737        -0.817590
 H        -2.238593         0.611742        -2.806220
 H        -2.950751         2.358536        -2.787790
