19
Iteration:  1288
 C         1.165411        -0.430225        -0.255334
 C        -0.312420        -0.318309        -0.177137
 C        -1.485081        -0.280549        -0.195370
 C        -2.841063        -0.095895         0.285583
 O        -2.641236         0.839361         1.366921
 C        -3.833881         0.547811        -0.704240
 C        -4.062476        -0.210082        -2.070374
 O        -3.419749         0.959113        -2.736812
 C        -3.281798         1.651647        -1.490314
 H         1.676478         0.540764        -0.719693
 H         1.583563        -0.734363         0.675829
 H         1.380279        -1.304486        -0.959820
 H        -3.190180        -1.109770         0.564871
 H        -1.735666         0.678304         1.630028
 H        -4.819437         0.689188        -0.133206
 H        -3.527276        -1.156471        -2.396797
 H        -5.154727        -0.145147        -2.351469
 H        -2.279806         1.988396        -1.173511
 H        -3.825810         2.590139        -1.458491
