19
Iteration:  2883charge 0 multiplicity 1
 C         1.290601         0.400113         0.675497
 C         0.133227        -0.351558         0.153670
 C        -0.989403        -0.538541        -0.287161
 C        -2.483287        -0.424637        -0.326042
 O        -3.022322        -0.100311         1.013117
 C        -2.890817         0.677709        -1.169851
 C        -4.354941         1.160169        -0.972284
 O        -4.649262         1.240144        -2.438300
 C        -3.341541         0.592996        -2.676789
 H         0.913474         1.377275         1.102196
 H         1.879579        -0.050592         1.430536
 H         1.908741         0.601362        -0.182449
 H        -2.984161        -1.389062        -0.690542
 H        -2.477201        -0.643183         1.632276
 H        -2.142696         1.505044        -1.141759
 H        -4.806025         0.278364        -0.522695
 H        -4.426314         2.156871        -0.488258
 H        -3.391697        -0.344011        -3.267025
 H        -2.813333         1.231812        -3.367245
