19
Iteration:   613charge 0 multiplicity 1
 C         1.595946        -0.150902         0.768506
 C         0.265614         0.086130         0.277456
 C        -0.878281        -0.014694        -0.029290
 C        -2.377562        -0.090895        -0.300574
 O        -3.021583         0.217623         0.914394
 C        -3.008355         0.936593        -1.305163
 C        -4.587548         1.045640        -1.109222
 O        -4.871238         0.420605        -2.403069
 C        -3.348978         0.497790        -2.787184
 H         1.762408        -1.018043         1.265484
 H         2.372299         0.074675        -0.087501
 H         1.788525         0.609217         1.540228
 H        -2.762876        -1.141987        -0.632374
 H        -3.005161        -0.606836         1.487355
 H        -2.549739         1.921834        -1.295706
 H        -5.060681         0.556069        -0.223910
 H        -4.813442         2.139115        -1.237622
 H        -2.948722        -0.488808        -3.099107
 H        -3.149505         1.186425        -3.603972
