19
Iteration:  3366
 C         1.348369         0.065200        -0.089277
 C        -0.078455        -0.139295        -0.115959
 C        -1.214838        -0.427342         0.170799
 C        -2.654938        -0.281199         0.177221
 O        -3.199291        -0.000939         1.456322
 C        -3.103220         0.781787        -0.893693
 C        -4.664449         0.797187        -1.453797
 O        -4.132049         1.104026        -2.826460
 C        -2.777579         0.793476        -2.351754
 H         2.006825        -0.763922         0.483876
 H         1.810298         0.089060        -1.096509
 H         1.704197         1.045120         0.255846
 H        -3.069508        -1.250304        -0.195210
 H        -2.532577         0.513667         1.934274
 H        -2.863126         1.815615        -0.455669
 H        -5.069878        -0.222657        -1.277043
 H        -5.192960         1.656666        -1.083197
 H        -2.333837        -0.079287        -2.771003
 H        -2.135179         1.626608        -2.718163
