19
Iteration:  1115
 C         0.734245        -0.914873        -1.063278
 C        -0.395813        -0.356211        -0.382686
 C        -1.335541         0.062926         0.349832
 C        -2.733059         0.057127         0.624244
 O        -3.297401         1.151048         1.412800
 C        -3.551959         0.204271        -0.688857
 C        -3.030596        -0.242978        -2.104507
 O        -3.294550         1.101660        -2.645176
 C        -3.547895         1.644278        -1.361020
 H         1.522112        -0.143861        -1.260530
 H         1.143280        -1.789695        -0.634586
 H         0.564074        -1.015056        -2.158845
 H        -2.965058        -0.879088         1.205296
 H        -3.794036         0.847943         2.225174
 H        -4.544829        -0.208702        -0.409668
 H        -1.946776        -0.516209        -2.121521
 H        -3.633161        -1.055283        -2.622710
 H        -2.685871         2.284544        -1.119687
 H        -4.546021         2.185639        -1.380568
