19
Iteration:  4660charge 0 multiplicity 1
 C         1.456700         0.162067        -0.075921
 C         0.025918        -0.018439        -0.018078
 C        -1.158939        -0.367408        -0.044280
 C        -2.641624        -0.482367        -0.037786
 O        -3.133281        -0.497234         1.333982
 C        -3.360371         0.847126        -0.692708
 C        -4.707932         0.771483        -1.542188
 O        -4.104879         1.358357        -2.659481
 C        -2.753110         1.116227        -2.175775
 H         1.899793        -0.547948         0.564621
 H         1.861336         0.212132        -1.046506
 H         1.652126         1.227216         0.378980
 H        -2.994701        -1.432980        -0.692927
 H        -3.404555        -1.406570         1.532851
 H        -3.075851         1.652000        -0.068500
 H        -5.043116        -0.266176        -1.681364
 H        -5.559698         1.363468        -1.256546
 H        -2.378979         0.229560        -2.724229
 H        -2.179730         2.010983        -2.276974
