19
Iteration:  1832
 C         1.492704        -0.170733         0.164111
 C         0.082791        -0.373188         0.226675
 C        -1.157103        -0.190722         0.071660
 C        -2.595578        -0.007428         0.035974
 O        -2.968290         0.654927         1.289720
 C        -3.155642         0.850825        -1.028814
 C        -4.623975         0.664513        -1.327114
 O        -4.434788         0.531842        -2.761514
 C        -2.968006         0.759992        -2.614511
 H         2.115628        -0.962299        -0.235878
 H         1.534020         0.809718        -0.476645
 H         1.872574         0.147336         1.162262
 H        -3.101039        -1.015644        -0.128264
 H        -2.939034        -0.016931         1.966026
 H        -3.000105         1.928988        -0.728937
 H        -5.099508        -0.235089        -1.012708
 H        -5.335157         1.458772        -0.909880
 H        -2.424008        -0.103476        -2.979406
 H        -2.785527         1.764782        -2.971945
