19
Iteration:  1254
 C         1.162221        -0.543005        -0.460530
 C        -0.318469        -0.437335        -0.355745
 C        -1.485386        -0.321858        -0.123603
 C        -2.827871        -0.048617         0.363293
 O        -2.930541         0.998566         1.410459
 C        -3.810189         0.469994        -0.657825
 C        -3.715586        -0.271939        -2.059592
 O        -3.366196         1.054545        -2.686176
 C        -3.355120         1.660284        -1.383483
 H         1.765017         0.409887        -0.768438
 H         1.665072        -0.911867         0.450345
 H         1.421865        -1.249831        -1.284906
 H        -3.383833        -0.868469         0.769466
 H        -2.203817         1.636163         1.264757
 H        -4.885202         0.631806        -0.335354
 H        -2.990628        -1.120904        -2.125675
 H        -4.673620        -0.703985        -2.509476
 H        -2.354532         1.986902        -1.020225
 H        -4.096379         2.437450        -1.419904
