19
Iteration:  4181
 C         1.446984         0.133345         0.620663
 C         0.082193        -0.136130         0.061860
 C        -1.038647        -0.403992        -0.224178
 C        -2.555184        -0.294273        -0.421914
 O        -3.129057        -0.552020         0.921641
 C        -2.918348         0.987875        -1.040171
 C        -4.421790         1.215499        -0.973917
 O        -4.630925         1.013449        -2.417850
 C        -3.186733         0.907045        -2.529322
 H         1.384648         0.682570         1.504909
 H         2.044968        -0.713588         0.724980
 H         2.112956         0.798803         0.004743
 H        -2.775840        -1.126840        -1.031187
 H        -2.656175        -1.252370         1.367476
 H        -2.355576         1.944600        -0.647350
 H        -5.099037         0.507261        -0.388583
 H        -4.682171         2.237251        -0.791079
 H        -2.670527         0.041514        -3.015165
 H        -2.771582         1.730748        -3.239985
