19
Iteration:  1030charge 0 multiplicity 1
 C         1.164552        -0.398754        -0.533020
 C        -0.289490        -0.469852        -0.394618
 C        -1.438733        -0.355465        -0.017077
 C        -2.861023        -0.060978         0.433903
 O        -2.689102         0.955885         1.462221
 C        -3.942241         0.481881        -0.666699
 C        -3.812758        -0.226487        -2.099903
 O        -3.173447         0.908693        -2.708087
 C        -3.533698         1.780532        -1.477138
 H         1.542686         0.312181         0.144361
 H         1.512706        -1.490990        -0.081745
 H         1.546442        -0.547039        -1.575672
 H        -3.297156        -0.975434         0.828238
 H        -3.598331         1.252050         1.553515
 H        -4.908809         0.560343        -0.180588
 H        -3.166720        -1.150927        -1.849519
 H        -4.768554        -0.479218        -2.534411
 H        -2.734583         2.474338        -1.180722
 H        -4.430319         2.384668        -1.658394
