19
Iteration:   812charge 0 multiplicity 1
 C         1.353415        -0.168739        -0.465626
 C        -0.093083         0.108560        -0.126507
 C        -1.243797         0.208806         0.331209
 C        -2.662395        -0.164084         0.284119
 O        -3.423796         0.132603         1.478685
 C        -3.156257         0.786800        -0.832117
 C        -4.512232         0.365928        -1.490713
 O        -3.948080         0.975396        -2.728866
 C        -2.641064         0.752026        -2.258438
 H         2.084900        -0.134095         0.263640
 H         1.484910        -1.157268        -0.982591
 H         1.696899         0.614916        -1.162403
 H        -2.741966        -1.159675        -0.034325
 H        -3.993585        -0.597508         1.680566
 H        -3.247097         1.811251        -0.601049
 H        -4.774382        -0.676671        -1.709697
 H        -5.430542         0.849418        -1.056715
 H        -2.373504        -0.293278        -2.570322
 H        -1.998415         1.526841        -2.634811
