19
Iteration:  3194
 C         1.334561        -0.070608        -0.409764
 C        -0.064077        -0.282143        -0.139763
 C        -1.259774        -0.244578         0.085374
 C        -2.725941        -0.165433         0.237406
 O        -3.283905         0.029525         1.612486
 C        -3.336783         0.954280        -0.718929
 C        -4.618562         0.686554        -1.662025
 O        -3.756354         0.568832        -2.857002
 C        -2.762565         1.313371        -2.111705
 H         1.822883        -0.385795        -1.330868
 H         1.658100         0.963239        -0.597305
 H         1.902189        -0.459394         0.407042
 H        -3.235117        -1.083030        -0.050972
 H        -2.628646         0.008857         2.351382
 H        -3.270607         1.784513        -0.047053
 H        -5.130629        -0.279934        -1.564465
 H        -5.417192         1.453324        -1.602470
 H        -1.731589         0.898427        -2.270905
 H        -2.833372         2.373057        -2.269531
