19
Iteration:  3727
 C         1.532445        -0.097801         0.049482
 C         0.081860         0.009984         0.041853
 C        -1.153679        -0.193337         0.028174
 C        -2.658768        -0.147754        -0.001220
 O        -3.200764        -0.150157         1.303719
 C        -3.195944         0.969733        -0.869994
 C        -4.646897         0.879797        -1.376683
 O        -4.261386         0.923523        -2.768020
 C        -2.854433         0.786508        -2.340065
 H         1.856194         0.709768        -0.495362
 H         1.859074        -0.139182         1.073773
 H         1.777292        -1.170592        -0.304754
 H        -3.029054        -1.108073        -0.543048
 H        -2.919862        -0.992798         1.678188
 H        -2.841836         1.934145        -0.397532
 H        -5.190198        -0.012495        -1.121110
 H        -5.338838         1.692204        -1.241655
 H        -2.459983        -0.197579        -2.470689
 H        -2.287550         1.592957        -2.654605
