19
Iteration:  4570charge 0 multiplicity 1
 C         1.411474         0.041967        -0.423052
 C         0.030280        -0.036872        -0.017845
 C        -1.187981        -0.192235         0.171136
 C        -2.705443        -0.305800        -0.011468
 O        -3.425675        -0.723627         1.224309
 C        -3.378810         1.023842        -0.625914
 C        -4.567832         0.684739        -1.453272
 O        -3.827059         0.895484        -2.728959
 C        -2.711185         1.522783        -1.966372
 H         1.848189        -0.936737        -0.765511
 H         1.478667         0.762093        -1.292135
 H         2.152574         0.337496         0.320260
 H        -2.921611        -1.111824        -0.775747
 H        -3.565643        -0.044793         1.879428
 H        -3.465994         1.952193         0.091080
 H        -5.121413        -0.488271        -1.291542
 H        -5.395794         1.396941        -1.417278
 H        -1.723898         1.022731        -2.138515
 H        -2.632950         2.635562        -2.134448
