19
Iteration:   834
 C         1.271805        -0.253294        -0.510652
 C        -0.032546         0.244570        -0.142197
 C        -1.164531         0.054058         0.316932
 C        -2.618840        -0.115362         0.283190
 O        -3.383698         0.228605         1.553763
 C        -3.286280         0.657168        -0.765240
 C        -4.466202         0.253259        -1.602247
 O        -4.009298         0.995019        -2.793298
 C        -2.591196         0.934864        -2.197119
 H         1.837038        -0.110919         0.355141
 H         1.144846        -1.404865        -0.591206
 H         1.914245         0.238199        -1.239976
 H        -2.704116        -1.133252         0.090946
 H        -4.160330        -0.405930         1.560940
 H        -3.530418         1.594067        -0.355186
 H        -4.459139        -0.824693        -1.787842
 H        -5.555700         0.435080        -1.332916
 H        -2.085807         0.017980        -2.597036
 H        -2.163964         1.901767        -2.373412
