19
Iteration:  2130
 C         1.378160        -0.126683         0.376690
 C         0.045452        -0.167240        -0.028468
 C        -1.184611        -0.303797        -0.151419
 C        -2.604954        -0.087311         0.004206
 O        -2.747703         0.555748         1.265117
 C        -3.284946         0.883492        -0.933063
 C        -4.767589         0.635227        -1.389220
 O        -4.344776         0.683959        -2.749047
 C        -2.952995         0.709320        -2.404383
 H         1.429601         0.194779         1.341395
 H         2.050031        -1.030475         0.154794
 H         1.891175         0.690474        -0.189564
 H        -3.228909        -1.008119        -0.032857
 H        -2.356288        -0.029820         1.948481
 H        -3.118418         1.945380        -0.733391
 H        -4.994090        -0.448600        -1.183275
 H        -5.475572         1.433801        -1.107112
 H        -2.510118        -0.306222        -2.611920
 H        -2.457211         1.378493        -3.070133
