19
Iteration:   911charge 0 multiplicity 1
 C         1.274436        -0.195481        -0.295795
 C        -0.141593        -0.270242        -0.192979
 C        -1.311470        -0.277968         0.014648
 C        -2.766715        -0.054979         0.202009
 O        -2.859741         0.441927         1.648591
 C        -3.582275         0.834889        -0.783489
 C        -4.369622        -0.019870        -1.758354
 O        -3.746058         0.757784        -2.870792
 C        -2.953768         1.539961        -1.981040
 H         1.565583         0.350930         0.584547
 H         1.962580        -1.139390        -0.216034
 H         1.644115         0.409138        -1.147776
 H        -3.282820        -1.070246         0.286591
 H        -3.825810         0.313166         1.874106
 H        -4.181929         1.444428        -0.139012
 H        -4.105266        -1.064787        -1.779893
 H        -5.489404         0.123291        -1.834742
 H        -1.865286         1.319095        -2.077276
 H        -3.202767         2.610420        -1.979110
