19
Iteration:   673charge 0 multiplicity 1
 C         1.326336         0.303242         0.468365
 C         0.045462        -0.288224         0.067728
 C        -1.115099        -0.356578        -0.210843
 C        -2.661809        -0.224953        -0.199532
 O        -3.020707         0.070149         1.126595
 C        -2.922739         1.040546        -1.119735
 C        -4.454823         1.330460        -1.230847
 O        -4.476426         0.303687        -2.404354
 C        -3.095093         0.516239        -2.503136
 H         1.880991        -0.308697         1.345423
 H         2.070644         0.368891        -0.268822
 H         0.989139         1.345132         0.689335
 H        -3.356528        -1.038641        -0.571472
 H        -2.402120         0.791142         1.428660
 H        -2.065716         1.763888        -0.997033
 H        -5.144880         1.105152        -0.419875
 H        -4.755653         2.295348        -1.620835
 H        -2.586040        -0.418083        -2.767502
 H        -2.859597         1.392428        -3.162948
