19
Iteration:  1411charge 0 multiplicity 1
 C         1.362766        -0.422083        -0.302486
 C        -0.044253         0.105526        -0.091061
 C        -1.270659         0.050260         0.168804
 C        -2.724304        -0.138069         0.208650
 O        -3.109439         0.118565         1.590845
 C        -3.541124         0.814794        -0.742168
 C        -4.496761         0.207373        -1.788392
 O        -3.926578         0.901188        -2.902873
 C        -2.768044         1.283775        -2.049405
 H         1.710145         0.152664        -1.231268
 H         2.026192        -0.130164         0.483114
 H         1.326689        -1.530653        -0.378132
 H        -2.963137        -1.162205        -0.095093
 H        -2.332937         0.295716         2.102151
 H        -3.764780         1.723481        -0.199024
 H        -4.240281        -0.883482        -1.945417
 H        -5.588113         0.509293        -1.633302
 H        -1.866115         0.728407        -2.364779
 H        -2.652277         2.335331        -2.111596
