19
Iteration:  3400
 C         1.383048         0.113236         0.151192
 C        -0.011486        -0.272265         0.095579
 C        -1.214962        -0.321685        -0.191709
 C        -2.648551        -0.298960         0.029432
 O        -3.042332         0.038730         1.334622
 C        -3.129065         0.813678        -0.925005
 C        -4.636445         0.968031        -1.329327
 O        -4.249590         1.015669        -2.765102
 C        -2.871902         0.698480        -2.390640
 H         2.004828        -0.434926         1.081850
 H         1.758038        -0.210600        -0.847866
 H         1.443428         1.185534         0.329980
 H        -3.052708        -1.292072        -0.355168
 H        -2.388499        -0.418786         1.856297
 H        -2.802825         1.764107        -0.437174
 H        -5.409533         0.143376        -1.097744
 H        -5.241812         1.839199        -1.031938
 H        -2.521131        -0.269510        -2.690089
 H        -2.278900         1.577956        -2.725216
