19
Iteration:  2772charge 0 multiplicity 1
 C         1.549202        -0.129720         0.172527
 C         0.110394         0.093901         0.206875
 C        -1.111968         0.082222         0.086879
 C        -2.513158        -0.138242        -0.118062
 O        -3.182512        -0.530969         1.089409
 C        -3.132305         0.938540        -0.967118
 C        -4.607381         0.983074        -1.243188
 O        -4.426086         1.127175        -2.670327
 C        -3.072007         0.606626        -2.443053
 H         1.881322        -0.174397         1.280277
 H         1.852195        -1.042416        -0.279048
 H         2.103539         0.624119        -0.311995
 H        -2.679063        -1.005987        -0.830506
 H        -2.568759        -0.259601         1.814209
 H        -2.625844         1.955942        -0.804648
 H        -5.004720        -0.054160        -1.107250
 H        -5.200672         1.684402        -0.579907
 H        -3.138546        -0.513574        -2.709367
 H        -2.277978         1.174146        -3.043525
