19
Iteration:  4139charge 0 multiplicity 1
 C         1.556316        -0.002289         0.486217
 C         0.126667        -0.151470         0.058064
 C        -1.019351        -0.265701        -0.196939
 C        -2.511351        -0.311948        -0.358223
 O        -3.268060        -0.431554         0.911675
 C        -3.054564         1.021344        -0.926758
 C        -4.519304         1.120804        -1.030921
 O        -4.544575         0.808452        -2.523995
 C        -3.085888         1.076206        -2.433017
 H         1.513798         0.167051         1.581333
 H         2.111914        -0.838120         0.064336
 H         1.958063         0.968178         0.159713
 H        -2.898737        -1.065494        -0.972560
 H        -2.640509        -0.853467         1.502852
 H        -2.509973         1.813208        -0.436818
 H        -5.102664         0.522231        -0.171770
 H        -4.848934         2.157970        -0.799866
 H        -2.504714         0.361488        -3.003251
 H        -2.712371         2.034280        -2.848128
