19
Iteration:  3839
 C         1.256937        -0.024108        -0.486281
 C        -0.106772        -0.196049        -0.066545
 C        -1.256801        -0.224428         0.255429
 C        -2.760622        -0.286347         0.212606
 O        -3.345764         0.110149         1.510488
 C        -3.259211         0.764435        -0.750918
 C        -4.443528         0.459329        -1.636695
 O        -3.929477         1.094435        -2.772256
 C        -2.599803         1.100625        -2.166652
 H         1.388998         0.005152        -1.552088
 H         1.865180         0.867226        -0.237098
 H         2.090066        -0.839913         0.063838
 H        -3.166685        -1.227877        -0.021787
 H        -2.885175        -0.387394         2.190269
 H        -3.440389         1.681245        -0.103158
 H        -4.647527        -0.635429        -1.688925
 H        -5.432995         0.853371        -1.502827
 H        -1.939458         0.413888        -2.676373
 H        -2.104058         2.045778        -2.130622
