19
Iteration:  3949
 C         1.389458        -0.174767        -0.296630
 C        -0.063614        -0.151235        -0.146263
 C        -1.287254        -0.262434        -0.021738
 C        -2.698610        -0.192953         0.183317
 O        -3.219298         0.011510         1.526612
 C        -3.381639         0.939040        -0.744902
 C        -4.597029         0.482608        -1.639505
 O        -3.853884         0.827326        -2.830470
 C        -2.745997         1.383858        -2.023336
 H         1.734380        -1.118642        -0.583438
 H         1.573103         0.672535        -0.918434
 H         1.855460        -0.173669         0.720447
 H        -3.149914        -1.095845        -0.279088
 H        -2.470096        -0.237558         2.133351
 H        -3.777531         1.603410         0.093349
 H        -4.760929        -0.674199        -1.717845
 H        -5.506298         1.061016        -1.401922
 H        -1.782336         0.976529        -2.279440
 H        -2.634621         2.436343        -2.161827
