19
Iteration:  2649charge 0 multiplicity 1
 C         1.361987        -0.166405        -0.052513
 C        -0.079227        -0.210365        -0.058326
 C        -1.266834        -0.065348        -0.153207
 C        -2.700879        -0.110010        -0.031008
 O        -3.003557        -0.102417         1.441681
 C        -3.406454         0.997289        -0.727306
 C        -4.689577         0.710567        -1.497899
 O        -3.878830         0.479384        -2.787049
 C        -2.861435         1.300219        -2.098580
 H         1.910341        -1.055515         0.307845
 H         1.773295         0.115319        -1.060303
 H         1.510812         0.727799         0.409069
 H        -3.214782        -0.991572        -0.493949
 H        -2.171896         0.094039         1.907280
 H        -3.428053         1.900134        -0.043717
 H        -5.180361        -0.266840        -1.297412
 H        -5.365157         1.593755        -1.487665
 H        -1.727977         1.097981        -2.417942
 H        -2.982402         2.420504        -2.395862
