19
Iteration:  4931
 C         1.465032        -0.187290         0.634304
 C         0.164528        -0.255902        -0.033990
 C        -1.014964        -0.120608        -0.176991
 C        -2.386400        -0.172953        -0.405286
 O        -3.123444        -0.476583         0.903596
 C        -3.081386         1.175613        -0.904421
 C        -4.601649         0.859377        -1.034203
 O        -4.525777         0.731871        -2.505733
 C        -3.212668         1.386138        -2.463953
 H         1.933398         0.780909         0.521348
 H         1.212653        -0.432624         1.645704
 H         2.113741        -0.967258         0.099186
 H        -2.577847        -1.043086        -1.136023
 H        -2.424650        -0.877821         1.426035
 H        -2.595308         2.026011        -0.379684
 H        -4.910367         0.047112        -0.562200
 H        -5.112590         1.876812        -0.958655
 H        -2.613704         0.919981        -3.230855
 H        -3.346400         2.515092        -2.713679
