19
Iteration:  3928charge 0 multiplicity 1
 C         1.247583        -0.112953        -0.318350
 C        -0.177573        -0.143449        -0.226267
 C        -1.331443        -0.167828         0.055519
 C        -2.823298        -0.333968         0.186351
 O        -3.116972         0.063397         1.522945
 C        -3.335937         0.853547        -0.730741
 C        -4.535502         0.471050        -1.619599
 O        -3.786476         0.894055        -2.839906
 C        -2.668455         1.326538        -2.025228
 H         1.682521        -0.997093        -0.804289
 H         1.553818         0.820303        -0.828864
 H         1.820121        -0.413174         0.711765
 H        -3.237563        -1.305537        -0.064999
 H        -2.443338        -0.298654         2.091506
 H        -3.653650         1.644776         0.011804
 H        -4.731737        -0.701872        -1.477812
 H        -5.494263         1.016385        -1.544232
 H        -1.760504         1.007998        -2.440339
 H        -2.489320         2.357097        -1.969404
