19
Iteration:  2540
 C         1.413214        -0.032786        -0.461743
 C         0.087542        -0.232458         0.097504
 C        -1.078076        -0.178538         0.441065
 C        -2.565585        -0.081652         0.143447
 O        -3.561204         0.019559         1.263124
 C        -3.206229         0.975916        -0.821484
 C        -4.524779         0.477800        -1.390861
 O        -4.074027         0.709901        -2.742318
 C        -2.776193         1.224765        -2.324442
 H         1.667962        -0.927842        -1.161839
 H         1.594241         1.028675        -0.888671
 H         2.117730        -0.166030         0.339087
 H        -2.908537        -1.066778        -0.329152
 H        -3.247663        -0.585095         1.990592
 H        -3.168247         2.001750        -0.368348
 H        -4.666157        -0.565438        -1.124065
 H        -5.423553         1.078130        -1.235730
 H        -2.148135         0.578937        -2.746557
 H        -2.568124         2.273437        -2.526238
