19
Iteration:  3767
 C         1.421654        -0.149836        -0.227134
 C        -0.022785        -0.087504         0.038377
 C        -1.182526         0.088880         0.180356
 C        -2.657282        -0.170797         0.111566
 O        -3.315362        -0.180756         1.417242
 C        -3.260096         0.804566        -0.858960
 C        -4.638771         0.760271        -1.506353
 O        -4.077691         1.057750        -2.770130
 C        -2.724584         0.807122        -2.258920
 H         1.711522         0.523751        -1.171861
 H         2.082035         0.275706         0.571654
 H         1.762769        -1.185083        -0.353500
 H        -2.747524        -1.199591        -0.322002
 H        -2.581289        -0.441661         2.009319
 H        -3.174048         1.805153        -0.451928
 H        -5.111728        -0.330576        -1.528898
 H        -5.403624         1.433259        -0.970933
 H        -2.197719        -0.033596        -2.779646
 H        -1.998442         1.656237        -2.620547
