19
Iteration:  3849charge 0 multiplicity 1
 C         1.270390        -0.001873        -0.495795
 C        -0.104218        -0.244424        -0.073473
 C        -1.322738        -0.189138         0.242226
 C        -2.782469        -0.272937         0.217776
 O        -3.266755         0.124987         1.503155
 C        -3.285996         0.757141        -0.808809
 C        -4.549704         0.417193        -1.619389
 O        -3.874700         1.089020        -2.786510
 C        -2.521419         1.128848        -2.082127
 H         1.298023        -0.202924        -1.544352
 H         1.441417         1.044551        -0.160025
 H         1.945341        -0.889319         0.083221
 H        -3.084902        -1.234080        -0.067103
 H        -2.856075        -0.544807         2.051010
 H        -3.425187         1.713829        -0.177750
 H        -4.639730        -0.744613        -1.685792
 H        -5.473380         0.932206        -1.352192
 H        -1.880917         0.420198        -2.555509
 H        -2.214610         2.115303        -2.139574
