19
Iteration:   418charge 0 multiplicity 1
 C         1.376600         0.161695        -0.205272
 C        -0.028054        -0.193118         0.116680
 C        -1.239411        -0.225682         0.248826
 C        -2.687135        -0.193759         0.144768
 O        -3.101839         0.391260         1.496040
 C        -3.101885         0.870625        -0.951767
 C        -4.571261         0.980843        -1.460833
 O        -4.253009         0.516789        -2.848606
 C        -2.826033         0.462255        -2.429175
 H         1.485981        -0.223810        -1.181929
 H         1.554849         1.260004        -0.282996
 H         2.205471        -0.101928         0.455203
 H        -3.179856        -1.156058        -0.019940
 H        -2.561413        -0.137434         2.158375
 H        -2.640688         1.777908        -0.602789
 H        -5.295864         0.349666        -0.906083
 H        -4.997212         1.994382        -1.452755
 H        -2.510252        -0.580907        -2.596140
 H        -2.173104         1.091032        -3.007264
