19
Iteration:   824
 C         1.302745        -0.225371        -0.463400
 C        -0.071876         0.227177        -0.160702
 C        -1.157034         0.093616         0.287535
 C        -2.632312        -0.106467         0.361735
 O        -3.413663         0.182718         1.496253
 C        -3.211276         0.725282        -0.830499
 C        -4.502248         0.268846        -1.601123
 O        -3.999663         0.986195        -2.715117
 C        -2.623171         0.857748        -2.218248
 H         1.942191        -0.199173         0.396234
 H         1.220147        -1.280991        -0.832459
 H         1.691240         0.281712        -1.345835
 H        -2.772603        -1.150953         0.197526
 H        -4.107391        -0.542827         1.511357
 H        -3.321505         1.696744        -0.403614
 H        -4.512445        -0.828299        -1.754250
 H        -5.495926         0.729061        -1.289934
 H        -2.041627        -0.008342        -2.638299
 H        -1.954736         1.697608        -2.351577
