19
Iteration:  1526charge 0 multiplicity 1
 C         1.352302         0.252439        -0.133800
 C        -0.055692        -0.047460         0.057030
 C        -1.211686        -0.326155         0.121574
 C        -2.700836        -0.341479         0.038250
 O        -3.326770        -0.161376         1.355427
 C        -3.028041         0.787177        -0.939084
 C        -4.488566         1.219061        -1.300235
 O        -4.205962         0.828292        -2.699750
 C        -2.778284         0.513191        -2.435335
 H         1.692873         0.518570        -1.142306
 H         1.807191         1.139136         0.581796
 H         2.005748        -0.614109         0.232862
 H        -2.968030        -1.337391        -0.136732
 H        -2.986593         0.660548         1.721930
 H        -2.394069         1.659296        -0.620578
 H        -5.291816         0.586409        -0.890472
 H        -4.536019         2.291585        -1.142484
 H        -2.462791        -0.496872        -2.710451
 H        -2.137514         1.382553        -2.807395
