19
Iteration:   602charge 0 multiplicity 1
 C         1.614710        -0.247702         0.811879
 C         0.340670         0.119838         0.257119
 C        -0.836596         0.162024        -0.039501
 C        -2.302399        -0.065031        -0.276828
 O        -3.081052         0.236622         0.862530
 C        -3.031493         0.843537        -1.317501
 C        -4.597067         1.046856        -1.082843
 O        -4.862150         0.423815        -2.490169
 C        -3.461604         0.490520        -2.717968
 H         1.598163        -1.239527         1.051962
 H         2.519417        -0.086843         0.087889
 H         1.800238         0.432237         1.662285
 H        -2.277356        -1.177192        -0.566134
 H        -3.157412        -0.490020         1.512440
 H        -2.539528         1.804606        -1.228397
 H        -4.982005         0.420325        -0.250792
 H        -5.023700         2.071020        -0.929299
 H        -3.138486        -0.538620        -2.974526
 H        -3.145633         1.201989        -3.474614
