19
Iteration:   405
 C         1.383933         0.139317        -0.344100
 C        -0.009410        -0.054391         0.061891
 C        -1.216062        -0.245662         0.202304
 C        -2.750419        -0.097441         0.248827
 O        -3.214755         0.337296         1.513923
 C        -3.123571         0.792074        -0.937703
 C        -4.557520         1.038942        -1.506765
 O        -4.176791         0.530433        -2.779709
 C        -2.754155         0.361699        -2.351929
 H         1.737845        -0.215061        -1.269950
 H         1.490328         1.328229        -0.270674
 H         1.930520        -0.501626         0.376619
 H        -3.159871        -1.090087         0.062036
 H        -2.883097        -0.300861         2.128860
 H        -2.642271         1.684547        -0.817627
 H        -5.351461         0.369449        -1.123735
 H        -4.883601         2.131348        -1.529839
 H        -2.122084        -0.560960        -2.519556
 H        -2.241378         1.213767        -2.769151
