19
Iteration:  4854
 C         1.491856        -0.188530         0.587792
 C         0.145004        -0.083777         0.111773
 C        -1.046856         0.039509        -0.103200
 C        -2.453757        -0.233643        -0.414210
 O        -3.089908        -0.766635         0.796984
 C        -3.039246         1.107615        -0.978114
 C        -4.562204         1.159891        -1.008998
 O        -4.581057         0.831887        -2.448586
 C        -3.216013         1.125623        -2.497004
 H         1.640819         0.707598         1.198428
 H         1.610242        -1.105393         1.162530
 H         2.183344        -0.094085        -0.296174
 H        -2.512380        -1.149184        -1.180514
 H        -2.585146        -0.337753         1.527019
 H        -2.385877         1.875775        -0.452629
 H        -5.023335         0.397400        -0.465904
 H        -4.961810         2.221901        -0.674150
 H        -2.705508         0.360106        -3.126688
 H        -3.072910         2.097811        -3.179580
