19
Iteration:  2284charge 0 multiplicity 1
 C         1.610419        -0.239816         0.596647
 C         0.202854         0.044848         0.299865
 C        -0.947841         0.189996        -0.102017
 C        -2.431135        -0.103690        -0.174432
 O        -3.021521        -0.258337         1.119580
 C        -3.102608         0.953270        -1.164011
 C        -4.608249         1.308051        -1.281263
 O        -4.728461         0.717031        -2.641123
 C        -3.317078         0.439793        -2.626405
 H         2.241371         0.584695         0.739223
 H         1.704274        -0.652913         1.719308
 H         2.035862        -0.928900        -0.193684
 H        -2.452375        -1.092739        -0.589863
 H        -2.226189        -0.585340         1.589469
 H        -2.606022         1.902497        -1.131343
 H        -5.296512         0.747898        -0.652253
 H        -4.861982         2.378740        -1.222135
 H        -3.215361        -0.703133        -2.618731
 H        -2.924964         1.060907        -3.408788
