19
Iteration:  1325
 C         1.358985        -0.299153        -0.126748
 C        -0.105450        -0.435304        -0.265231
 C        -1.393957        -0.431937        -0.251124
 C        -2.799430        -0.081661         0.258562
 O        -2.765907         0.655727         1.498050
 C        -3.793147         0.728233        -0.658223
 C        -4.274040        -0.043012        -1.944689
 O        -3.524666         0.852219        -2.836986
 C        -3.294566         1.745952        -1.757706
 H         1.942388         0.603867        -0.536834
 H         1.615305        -0.330129         0.992476
 H         1.823669        -1.213080        -0.592669
 H        -3.375490        -1.070809         0.503189
 H        -2.261004         0.173286         2.197778
 H        -4.571468         1.190289        -0.093573
 H        -4.134872        -1.045675        -2.152086
 H        -5.351650        -0.006027        -1.972953
 H        -2.210406         1.840143        -1.727441
 H        -3.891811         2.708448        -1.787417
