19
Iteration:  4171
 C         1.390415         0.105939         0.573918
 C         0.094717        -0.142933         0.023736
 C        -1.076347        -0.304387        -0.196961
 C        -2.461007        -0.379409        -0.366107
 O        -3.152707        -0.514350         0.901049
 C        -2.938591         1.009267        -1.037517
 C        -4.461664         1.225276        -0.945063
 O        -4.590637         0.958949        -2.435027
 C        -3.120915         0.940569        -2.551285
 H         1.253141         0.422959         1.579619
 H         1.961188        -0.784259         0.711511
 H         1.901945         0.833477        -0.073230
 H        -2.775661        -1.097527        -1.031985
 H        -2.612200        -1.179981         1.368222
 H        -2.312822         1.845917        -0.573430
 H        -4.877895         0.414638        -0.215565
 H        -4.818654         2.238899        -0.696948
 H        -2.865113        -0.019144        -3.011945
 H        -2.802441         1.906441        -3.059731
