19
Iteration:  1956charge 0 multiplicity 1
 C         1.110782        -0.056508        -0.719310
 C        -0.074592        -0.018772         0.133952
 C        -1.255998        -0.003426         0.372198
 C        -2.695490         0.013595         0.254510
 O        -3.485057         0.251935         1.447202
 C        -3.001418         0.950907        -0.835775
 C        -4.441104         0.993092        -1.452730
 O        -3.976713         0.420199        -2.744118
 C        -2.572945         0.355125        -2.240849
 H         1.578387        -0.989062        -0.593411
 H         0.971136        -0.153677        -1.798360
 H         1.792533         0.733729        -0.413263
 H        -2.970592        -1.163708        -0.040602
 H        -2.865137         0.640901         2.047790
 H        -2.580701         1.896892        -0.535539
 H        -5.171487         0.278559        -1.033992
 H        -4.946886         2.002633        -1.522808
 H        -2.131813        -0.649259        -2.295549
 H        -1.835000         0.997896        -2.715075
