19
Iteration:  4754
 C         1.517825         0.148027         0.318887
 C         0.092696        -0.156064         0.149338
 C        -1.077888        -0.313914        -0.089381
 C        -2.505672        -0.432508        -0.240929
 O        -3.209039        -0.489042         1.033441
 C        -3.070218         0.814259        -0.979199
 C        -4.593671         0.881912        -1.134041
 O        -4.452763         1.365140        -2.549960
 C        -3.031600         1.004862        -2.482121
 H         1.683274         0.203383         1.428675
 H         2.215054        -0.559781        -0.207932
 H         1.671158         1.092797        -0.119374
 H        -2.749984        -1.355732        -0.916430
 H        -2.611964        -0.909723         1.653655
 H        -2.798389         1.673624        -0.311384
 H        -5.158188        -0.016824        -1.046763
 H        -5.096933         1.588974        -0.480707
 H        -2.777879         0.079886        -3.058064
 H        -2.485360         1.985857        -2.720775
