19
Iteration:   547charge 0 multiplicity 1
 C         1.569217        -0.384491         0.727902
 C         0.226101         0.064562         0.388859
 C        -0.886485         0.365511        -0.071515
 C        -2.391359         0.162291        -0.316616
 O        -2.831905         0.151887         1.034008
 C        -3.158133         0.994854        -1.296312
 C        -4.714072         0.748566        -1.240532
 O        -4.808720         0.660887        -2.581904
 C        -3.334518         0.269422        -2.609446
 H         1.732423        -1.395464         0.557111
 H         2.355238         0.259600         0.082856
 H         1.749253        -0.272986         1.820744
 H        -2.581112        -0.880271        -0.735128
 H        -2.181016         0.795468         1.307685
 H        -2.783155         1.989124        -1.144823
 H        -4.905195        -0.202605        -0.694819
 H        -5.375046         1.597762        -0.908236
 H        -3.437981        -0.839879        -2.514285
 H        -2.771855         0.470189        -3.526271
