19
Iteration:  1141
 C         0.627294        -0.937241        -1.153701
 C        -0.430576        -0.311622        -0.321641
 C        -1.353663         0.061499         0.411530
 C        -2.799961         0.136945         0.670303
 O        -3.340684         1.128730         1.559595
 C        -3.456401         0.219858        -0.778108
 C        -2.914009        -0.219126        -2.193871
 O        -3.293525         1.064292        -2.720975
 C        -3.550093         1.583217        -1.342665
 H         1.337668        -0.175109        -1.401321
 H         1.135359        -1.876300        -0.610097
 H         0.367758        -1.151985        -2.208207
 H        -3.064606        -0.758079         1.183891
 H        -2.901713         1.061863         2.463874
 H        -4.410315        -0.234318        -0.579671
 H        -1.733262        -0.373075        -2.261929
 H        -3.429459        -1.145617        -2.557574
 H        -2.762304         2.347537        -1.105377
 H        -4.554575         2.021491        -1.352507
