19
Iteration:  2582
 C         1.358409        -0.216139        -0.328283
 C        -0.046466         0.005919        -0.150907
 C        -1.245758         0.017086         0.071700
 C        -2.673685        -0.100354         0.084225
 O        -3.327084        -0.043257         1.413192
 C        -3.323948         1.006855        -0.737397
 C        -4.643079         0.528623        -1.479619
 O        -3.851808         0.570176        -2.690362
 C        -2.677567         1.225029        -2.131215
 H         1.597504        -1.222627        -0.633692
 H         1.828771         0.558255        -0.995740
 H         1.855945         0.073459         0.524498
 H        -2.784416        -1.062368        -0.317118
 H        -3.062606        -0.855638         1.861266
 H        -3.501046         1.817993        -0.007892
 H        -4.997838        -0.507852        -1.218907
 H        -5.460033         1.251066        -1.493762
 H        -1.584965         0.795327        -2.239732
 H        -2.712107         2.275821        -2.506656
