19
Iteration:  3696
 C         1.459507        -0.028526         0.268286
 C         0.053314        -0.222412         0.031112
 C        -1.142768        -0.154205        -0.127918
 C        -2.609649        -0.231987        -0.117847
 O        -3.190726        -0.033857         1.176485
 C        -3.084154         0.923766        -0.932531
 C        -4.549809         0.930124        -1.214152
 O        -4.394113         0.810055        -2.644712
 C        -2.922329         0.886175        -2.423971
 H         1.713658         0.999489         0.035319
 H         1.645377        -0.104828         1.344770
 H         2.113851        -0.780982        -0.332237
 H        -2.970494        -1.258090        -0.566321
 H        -2.874655        -0.827969         1.682009
 H        -2.516699         1.786097        -0.438406
 H        -5.166561         0.049554        -0.718560
 H        -5.092050         1.856309        -1.118991
 H        -2.247656         0.065195        -2.863405
 H        -2.418007         1.720232        -2.859942
