19
Iteration:   351
 C         1.158191         0.004093        -0.623479
 C        -0.182939         0.060786        -0.214087
 C        -1.241361        -0.004324         0.384510
 C        -2.663801         0.042548         0.275269
 O        -3.555556         0.219305         1.509394
 C        -3.017053         0.967101        -0.877912
 C        -4.439649         0.862043        -1.399685
 O        -3.874991         0.495326        -2.703814
 C        -2.538477         0.335720        -2.207576
 H         0.972153         0.075726        -1.628734
 H         1.807173         0.933704        -0.301191
 H         1.739545        -0.906939        -0.377766
 H        -2.983064        -0.976373        -0.061353
 H        -3.348098        -0.594453         1.949455
 H        -2.768976         1.956430        -0.626222
 H        -5.233235         0.160882        -1.124797
 H        -4.961195         1.854791        -1.426387
 H        -2.137263        -0.703101        -1.991684
 H        -1.809855         0.715081        -2.854286
