19
Iteration:   349
 C         1.147969        -0.001552        -0.650151
 C        -0.165947         0.047208        -0.192449
 C        -1.231413         0.002854         0.404611
 C        -2.666010         0.031801         0.283057
 O        -3.565247         0.221492         1.516312
 C        -3.024636         0.977898        -0.879571
 C        -4.423071         0.847501        -1.407444
 O        -3.891118         0.495746        -2.721179
 C        -2.532815         0.352835        -2.209756
 H         0.933967         0.121927        -1.697563
 H         1.831424         0.925435        -0.266530
 H         1.751525        -0.896049        -0.361154
 H        -3.014624        -0.957167        -0.017996
 H        -3.331290        -0.617655         1.988845
 H        -2.713416         1.961543        -0.636346
 H        -5.203964         0.138399        -1.124259
 H        -4.996884         1.840552        -1.463181
 H        -2.121832        -0.676900        -1.921457
 H        -1.795452         0.746537        -2.911644
