19
Iteration:  2825
 C         1.603032         0.199397         0.452433
 C         0.189070        -0.038266         0.181583
 C        -0.963001        -0.380557        -0.010264
 C        -2.451636        -0.397336        -0.197790
 O        -3.240491        -0.285161         1.034568
 C        -3.000033         0.739327        -1.113640
 C        -4.611991         1.120455        -1.091939
 O        -4.544585         1.268677        -2.553991
 C        -3.254574         0.596551        -2.677609
 H         1.831354         0.841379         1.373667
 H         2.063047        -0.797903         0.515082
 H         2.093952         0.730344        -0.301702
 H        -2.776023        -1.325886        -0.719550
 H        -2.693047        -0.745447         1.704085
 H        -2.401487         1.682652        -0.828508
 H        -5.323659         0.394562        -0.711828
 H        -4.872295         1.979516        -0.461801
 H        -3.415970        -0.491977        -2.871850
 H        -2.796010         1.085189        -3.433222
