19
Iteration:  2681
 C         1.517789        -0.139142         0.032395
 C         0.059983        -0.194758        -0.118557
 C        -1.165546        -0.363379        -0.080715
 C        -2.682334        -0.132311        -0.049411
 O        -3.216543        -0.073801         1.335744
 C        -3.319869         1.119473        -0.757811
 C        -4.623159         0.574873        -1.334585
 O        -4.078348         0.633597        -2.748012
 C        -2.896322         1.375686        -2.266882
 H         1.963201        -0.815876         0.786679
 H         2.089202        -0.139749        -0.943938
 H         1.673199         0.873851         0.332682
 H        -3.088786        -1.128528        -0.488117
 H        -2.817557         0.771934         1.700882
 H        -3.352142         2.015814        -0.075255
 H        -4.770240        -0.534276        -1.226483
 H        -5.578494         1.101709        -1.106702
 H        -1.939227         0.724548        -2.485721
 H        -2.858331         2.432047        -2.520391
