19
Iteration:   585
 C         1.675565        -0.335579         0.847887
 C         0.335363         0.109443         0.252762
 C        -0.814627         0.385253        -0.091121
 C        -2.344852         0.040468        -0.325354
 O        -3.121102         0.203610         0.956784
 C        -3.048925         0.885021        -1.284190
 C        -4.612293         0.872015        -1.147426
 O        -4.881273         0.558155        -2.431295
 C        -3.407396         0.331989        -2.789627
 H         1.584295        -1.535645         0.917521
 H         2.500506        -0.126355         0.219149
 H         1.919493         0.081676         1.847817
 H        -2.429642        -0.994086        -0.594385
 H        -2.662174        -0.394926         1.614496
 H        -2.725499         1.956019        -1.500272
 H        -5.042627         0.212672        -0.377031
 H        -4.930476         1.890037        -0.936366
 H        -3.138565        -0.693090        -3.156841
 H        -3.156950         1.125269        -3.531208
