19
Iteration:  2211charge 0 multiplicity 1
 C         1.639242        -0.339259         0.511889
 C         0.238702        -0.043249         0.307845
 C        -0.918565         0.036333        -0.004783
 C        -2.394002         0.018006        -0.233078
 O        -3.211121         0.181378         0.987349
 C        -3.070572         1.038885        -1.150469
 C        -4.625947         0.776279        -1.135033
 O        -4.674618         0.685952        -2.561554
 C        -3.214017         0.603188        -2.686257
 H         2.230409         0.241539         1.339531
 H         1.616821        -1.288302         0.969985
 H         2.198980        -0.367894        -0.400797
 H        -2.652773        -0.983313        -0.648617
 H        -2.744487         0.047328         1.798171
 H        -2.709670         2.081641        -1.068400
 H        -5.033532        -0.040010        -0.448916
 H        -5.346565         1.581924        -0.794077
 H        -2.963990        -0.394642        -2.916528
 H        -3.003070         1.332122        -3.498838
