19
Iteration:  1363charge 0 multiplicity 1
 C         1.331494        -0.316628        -0.195075
 C        -0.144222        -0.392172        -0.141658
 C        -1.295687        -0.035846        -0.142213
 C        -2.770922        -0.079826         0.210354
 O        -2.934661         0.379273         1.502329
 C        -3.592659         0.776466        -0.714739
 C        -4.372361         0.055114        -1.774772
 O        -3.708842         0.821868        -2.848713
 C        -3.075807         1.609922        -1.912914
 H         1.691488         0.481502        -0.770285
 H         1.593921        -0.219227         0.848631
 H         1.645069        -1.328294        -0.373095
 H        -3.091701        -1.209879         0.070137
 H        -2.156297        -0.042031         1.974992
 H        -4.247517         1.205675         0.120125
 H        -4.001951        -1.006159        -1.903848
 H        -5.418632         0.373653        -1.834631
 H        -1.970051         1.604726        -2.158344
 H        -3.402771         2.689838        -1.908435
