19
Iteration:   997charge 0 multiplicity 1
 C         1.101572        -0.280584        -0.307400
 C        -0.295701        -0.443680        -0.238885
 C        -1.534275        -0.324481        -0.352882
 C        -2.790241        -0.042955         0.253984
 O        -2.588704         0.843446         1.391849
 C        -3.827423         0.556189        -0.623599
 C        -4.060482        -0.189353        -1.952899
 O        -3.282373         0.778999        -2.706427
 C        -3.309983         1.763580        -1.488287
 H         1.435993         0.544620         0.253828
 H         1.404015        -1.328899         0.101365
 H         1.397525        -0.010983        -1.339596
 H        -3.218353        -0.989710         0.683978
 H        -3.363623         0.564321         1.874086
 H        -4.741078         0.799878        -0.105597
 H        -3.636056        -1.242239        -2.080002
 H        -5.071237        -0.235515        -2.310645
 H        -2.295715         2.128077        -1.364262
 H        -4.041318         2.523972        -1.688669
