19
Iteration:  2856
 C         1.355021         0.343469         0.543894
 C         0.069393        -0.274061         0.283236
 C        -1.045430        -0.437122        -0.147801
 C        -2.502472        -0.371001        -0.318617
 O        -3.018535        -0.131201         0.913398
 C        -2.871127         0.735009        -1.149975
 C        -4.431414         1.071478        -0.956751
 O        -4.585045         1.275002        -2.434540
 C        -3.275000         0.553745        -2.665177
 H         1.446242         1.277190         1.176844
 H         2.071988        -0.465876         0.944751
 H         1.697765         0.653804        -0.513844
 H        -2.919017        -1.231303        -0.770717
 H        -2.860104        -0.935156         1.441671
 H        -2.274101         1.636619        -1.008912
 H        -4.944860         0.099266        -0.742338
 H        -4.568812         1.883264        -0.270213
 H        -3.414619        -0.494436        -2.925899
 H        -2.880599         0.983142        -3.588234
