19
Iteration:  4975
 C         1.558622        -0.207589         0.448138
 C         0.134637        -0.161591         0.186442
 C        -0.982538        -0.099489        -0.258806
 C        -2.459626        -0.202452        -0.374777
 O        -3.045238        -0.353571         0.966563
 C        -3.219661         0.996176        -0.844752
 C        -4.778711         0.790756        -1.176145
 O        -4.482397         0.937710        -2.598983
 C        -3.041875         1.256179        -2.311568
 H         2.054919         0.493763        -0.204878
 H         1.649945         0.027043         1.489385
 H         1.977338        -1.233255         0.134469
 H        -2.795157        -1.004987        -0.986081
 H        -2.863322        -1.228171         1.326004
 H        -3.207179         1.838469        -0.126121
 H        -5.104682        -0.179080        -1.047117
 H        -5.444971         1.665963        -0.786336
 H        -2.259538         0.668986        -2.686980
 H        -2.808883         2.298804        -2.552859
