19
Iteration:   902
 C         1.340744        -0.188660        -0.364000
 C        -0.119788        -0.329038        -0.087152
 C        -1.323918        -0.190172         0.034974
 C        -2.726495        -0.004757         0.279488
 O        -2.894481         0.368716         1.636182
 C        -3.650253         0.871625        -0.703765
 C        -4.376264         0.040250        -1.842621
 O        -3.806025         0.749380        -2.885154
 C        -2.890878         1.459082        -2.038247
 H         1.615402         0.418943         0.563507
 H         1.832988        -1.136769        -0.346694
 H         1.549184         0.465799        -1.207321
 H        -3.084195        -1.011531         0.133098
 H        -3.868515         0.310243         1.831754
 H        -4.198868         1.583287        -0.069779
 H        -3.994981        -0.976285        -1.894308
 H        -5.509313        -0.059863        -1.707189
 H        -1.796198         1.212602        -2.140890
 H        -3.064309         2.569468        -2.043772
