19
Iteration:  2435charge 0 multiplicity 1
 C         1.417041         0.208671         0.212772
 C         0.010888        -0.078733        -0.111818
 C        -1.203930        -0.124915        -0.107150
 C        -2.594475        -0.258583        -0.022876
 O        -3.013968        -0.150068         1.425068
 C        -3.248078         0.766291        -0.941012
 C        -4.671070         1.005990        -1.352430
 O        -4.200448         1.161852        -2.746141
 C        -2.973671         0.359221        -2.380935
 H         2.072510         0.288100        -0.636564
 H         1.675239         1.043705         0.859377
 H         1.810144        -0.688491         0.821863
 H        -3.033669        -1.286091        -0.259240
 H        -2.251831        -0.571267         1.921682
 H        -2.768961         1.737419        -0.820808
 H        -5.426891         0.126676        -1.452170
 H        -5.275544         1.843305        -0.879809
 H        -2.842537        -0.699861        -2.550610
 H        -2.081896         0.653007        -2.953807
