19
Iteration:  3967
 C         1.511145        -0.211481        -0.253061
 C         0.034600        -0.231948        -0.054913
 C        -1.231272        -0.213475         0.030969
 C        -2.702539        -0.137239         0.118022
 O        -3.217012        -0.039865         1.468124
 C        -3.530792         1.010121        -0.674332
 C        -4.638536         0.481309        -1.614285
 O        -3.890485         0.822662        -2.867416
 C        -2.831803         1.377907        -2.057653
 H         1.783098        -1.301862        -0.580611
 H         1.765124         0.523836        -1.090974
 H         1.995450         0.145886         0.622670
 H        -3.074841        -1.114594        -0.398784
 H        -2.451686        -0.337986         2.043688
 H        -3.443426         1.918420         0.002455
 H        -4.752691        -0.546872        -1.502692
 H        -5.533300         1.104472        -1.723001
 H        -1.829011         0.796655        -2.193826
 H        -2.779044         2.542853        -2.249134
