19
Iteration:  2221
 C         1.620967        -0.409629         0.554983
 C         0.290925         0.078964         0.266256
 C        -0.930970         0.083703        -0.049124
 C        -2.419858         0.065041        -0.198039
 O        -3.237338         0.066944         1.006647
 C        -3.081976         1.042413        -1.229353
 C        -4.597822         0.873840        -1.085933
 O        -4.676513         0.670262        -2.570988
 C        -3.254381         0.551251        -2.651775
 H         2.124076         0.362616         1.217770
 H         1.562113        -1.371551         1.020108
 H         2.147231        -0.529537        -0.366805
 H        -2.632007        -0.946656        -0.763362
 H        -2.633651        -0.003016         1.740817
 H        -2.712481         2.042161        -0.997998
 H        -4.815673        -0.118536        -0.704732
 H        -5.095519         1.790918        -0.756037
 H        -2.825797        -0.433700        -2.737194
 H        -2.746805         1.154805        -3.440699
