19
Iteration:  1315charge 0 multiplicity 1
 C         1.286874        -0.354283        -0.135094
 C        -0.223125        -0.363457        -0.237914
 C        -1.402450        -0.392536        -0.248620
 C        -2.800765        -0.137367         0.323289
 O        -2.672459         0.717408         1.465403
 C        -3.796482         0.675805        -0.690918
 C        -4.220299        -0.072784        -1.997701
 O        -3.512814         0.855635        -2.847284
 C        -3.288717         1.754787        -1.680492
 H         1.580069         0.566895        -0.580498
 H         1.673609        -0.412416         0.939367
 H         1.665610        -1.204265        -0.696183
 H        -3.122783        -1.219755         0.543409
 H        -2.138489         0.307917         2.154354
 H        -4.625151         0.783806        -0.060986
 H        -3.992810        -1.062689        -2.270831
 H        -5.223035         0.203906        -2.142410
 H        -2.233040         2.059647        -1.505523
 H        -3.962508         2.663277        -1.794534
