19
Iteration:   354
 C         1.186505         0.019939        -0.573159
 C        -0.209126         0.080799        -0.235731
 C        -1.258908        -0.013069         0.353284
 C        -2.674248         0.051417         0.267545
 O        -3.533469         0.221423         1.489038
 C        -3.006192         0.941087        -0.866790
 C        -4.467491         0.890904        -1.395399
 O        -3.853413         0.492324        -2.681489
 C        -2.552895         0.304475        -2.193548
 H         1.094905         0.005142        -1.718300
 H         1.705165         0.871877        -0.381049
 H         1.695149        -0.919782        -0.401774
 H        -2.923079        -0.986968        -0.131746
 H        -3.375648        -0.623006         1.955105
 H        -2.810989         2.036160        -0.608180
 H        -5.245337         0.160914        -1.078000
 H        -4.888826         1.867938        -1.387974
 H        -2.225035        -0.738818        -2.126909
 H        -1.759838         0.765924        -2.823741
