19
Iteration:  2729charge 0 multiplicity 1
 C         1.599521        -0.157896         0.046476
 C         0.137314        -0.088464         0.144469
 C        -1.094538         0.009909         0.122171
 C        -2.549877        -0.178041        -0.054605
 O        -3.240215        -0.316281         1.228964
 C        -3.169146         0.885048        -0.938527
 C        -4.687402         0.746880        -1.275327
 O        -4.389063         0.936531        -2.768077
 C        -2.923350         1.021692        -2.420238
 H         2.039770        -0.641994         1.002835
 H         1.762817        -0.835572        -0.768036
 H         2.162826         0.789626        -0.047308
 H        -2.679456        -1.152610        -0.528267
 H        -3.129106         0.478978         1.773659
 H        -2.970562         1.864926        -0.410850
 H        -5.232988        -0.153854        -0.950374
 H        -5.399245         1.586923        -0.985294
 H        -2.290338         0.265848        -2.865322
 H        -2.663372         2.155275        -2.617011
