19
Iteration:  2229charge 0 multiplicity 1
 C         1.599214        -0.436459         0.599006
 C         0.216437         0.148711         0.193563
 C        -0.960295         0.160129        -0.039983
 C        -2.408678         0.070124        -0.230131
 O        -3.212017        -0.023054         1.020936
 C        -3.050168         1.030046        -1.187125
 C        -4.556849         0.961962        -1.127793
 O        -4.699977         0.659276        -2.585577
 C        -3.235789         0.534934        -2.615366
 H         2.198551         0.278389         1.012321
 H         1.596786        -1.486972         1.086467
 H         2.294055        -0.613081        -0.265121
 H        -2.468161        -1.068441        -0.494309
 H        -2.509308        -0.070672         1.650568
 H        -2.784703         2.078094        -1.196221
 H        -4.906905         0.112465        -0.580129
 H        -5.148019         1.721589        -0.663088
 H        -2.967573        -0.604555        -2.744845
 H        -2.688479         1.012682        -3.412123
