19
Iteration:   358
 C         1.204573         0.023678        -0.547747
 C        -0.219506         0.101176        -0.249769
 C        -1.283701        -0.017607         0.322817
 C        -2.706366         0.038044         0.268824
 O        -3.496884         0.223694         1.456112
 C        -3.002374         0.922391        -0.840388
 C        -4.486427         0.916253        -1.397984
 O        -3.845574         0.488919        -2.668319
 C        -2.563132         0.278513        -2.172851
 H         1.304923        -0.061053        -1.741743
 H         1.748745         1.014451        -0.374541
 H         1.663018        -0.957424        -0.342169
 H        -2.885398        -0.951207        -0.171011
 H        -3.425608        -0.613634         1.972507
 H        -2.791096         2.002855        -0.647340
 H        -5.188518         0.164808        -0.994793
 H        -4.868776         1.972963        -1.399115
 H        -2.359849        -0.824055        -2.253860
 H        -1.747459         0.865829        -2.755062
