19
Iteration:  3187charge 0 multiplicity 1
 C         1.316594        -0.050480        -0.390305
 C        -0.078032        -0.270590        -0.110435
 C        -1.285312        -0.268515         0.062605
 C        -2.727306        -0.178075         0.189103
 O        -3.226766         0.048790         1.576275
 C        -3.378949         0.957590        -0.767071
 C        -4.579896         0.660096        -1.604441
 O        -3.771309         0.578445        -2.802711
 C        -2.742513         1.306937        -2.144730
 H         1.633752        -0.594053        -1.281389
 H         1.583162         1.060581        -0.299547
 H         1.852069        -0.651851         0.517266
 H        -3.059276        -1.168256        -0.135287
 H        -2.527520        -0.029048         2.228941
 H        -3.465224         1.870593        -0.053984
 H        -5.152455        -0.278355        -1.427220
 H        -5.303646         1.525299        -1.635180
 H        -1.737298         1.081097        -2.330850
 H        -2.853430         2.409727        -2.298338
