19
Iteration:  1255charge 0 multiplicity 1
 C         1.167941        -0.537602        -0.452019
 C        -0.321382        -0.432931        -0.345742
 C        -1.481673        -0.327141        -0.137954
 C        -2.825834        -0.051731         0.362240
 O        -2.927828         0.997941         1.410628
 C        -3.822660         0.476015        -0.653840
 C        -3.728440        -0.270648        -2.057362
 O        -3.365328         1.053434        -2.688159
 C        -3.348843         1.651004        -1.388128
 H         1.799040         0.415811        -0.788777
 H         1.642071        -0.917924         0.440169
 H         1.444605        -1.257228        -1.282787
 H        -3.377681        -0.885902         0.757352
 H        -2.165321         1.617400         1.251504
 H        -4.896797         0.643104        -0.336762
 H        -3.012777        -1.073019        -2.121608
 H        -4.657085        -0.704136        -2.512348
 H        -2.360598         1.989997        -1.013784
 H        -4.083360         2.453252        -1.399352
