19
Iteration:  1394charge 0 multiplicity 1
 C         1.376551        -0.395734        -0.283349
 C        -0.017429        -0.001721        -0.071732
 C        -1.245706        -0.069514         0.006635
 C        -2.748626        -0.009601         0.251529
 O        -3.034096         0.162732         1.640303
 C        -3.622491         0.870322        -0.760796
 C        -4.496362         0.122402        -1.834641
 O        -3.831705         0.864962        -2.929562
 C        -2.893694         1.425481        -1.987053
 H         1.906021         0.038914        -1.090483
 H         1.956223        -0.195398         0.710507
 H         1.284123        -1.474951        -0.417891
 H        -3.024405        -1.110753         0.042051
 H        -2.172321         0.117356         2.052471
 H        -4.306717         1.421310        -0.078934
 H        -4.448291        -0.962245        -1.908368
 H        -5.558529         0.211549        -1.886356
 H        -1.947681         0.835324        -2.077437
 H        -2.764281         2.553867        -2.087127
