19
Iteration:  2886charge 0 multiplicity 1
 C         1.287130         0.426355         0.693263
 C         0.140709        -0.347521         0.134803
 C        -0.985468        -0.563169        -0.291865
 C        -2.482536        -0.433468        -0.297605
 O        -3.018044        -0.108615         1.005406
 C        -2.883789         0.691104        -1.184769
 C        -4.350353         1.183622        -0.973182
 O        -4.668107         1.231249        -2.439919
 C        -3.344376         0.592470        -2.679288
 H         0.939568         1.298199         1.130572
 H         1.895654        -0.088639         1.472054
 H         2.020884         0.517798        -0.196426
 H        -2.998724        -1.391941        -0.651869
 H        -2.442791        -0.599911         1.640024
 H        -2.165459         1.448568        -1.092265
 H        -5.013746         0.334589        -0.590642
 H        -4.434410         2.135340        -0.449674
 H        -3.396621        -0.377718        -3.226535
 H        -2.721033         1.325661        -3.433529
