19
Iteration:  3057charge 0 multiplicity 1
 C         1.532579        -0.277928         0.229535
 C         0.128658        -0.030659         0.310486
 C        -1.053293        -0.060268        -0.043415
 C        -2.513605        -0.050029        -0.249977
 O        -3.182037        -0.092552         1.042285
 C        -3.158968         1.118288        -0.963085
 C        -4.601352         0.683510        -1.166437
 O        -4.436007         0.690266        -2.598695
 C        -3.054280         0.994914        -2.492353
 H         2.080552         0.342640        -0.563614
 H         2.040738        -0.130785         1.161149
 H         1.539766        -1.310804         0.190360
 H        -2.701514        -0.893552        -0.890627
 H        -2.563842        -0.392441         1.697271
 H        -3.039807         2.105545        -0.388761
 H        -4.982792        -0.200564        -0.628995
 H        -5.336708         1.476930        -0.959297
 H        -2.442884         0.083037        -2.714206
 H        -2.780856         1.982459        -3.028686
