19
Iteration:   952
 C         1.194304        -0.215481        -0.141722
 C        -0.236232        -0.179424        -0.368215
 C        -1.466466        -0.379924        -0.212468
 C        -2.763762        -0.115309         0.263482
 O        -2.596000         0.690368         1.570560
 C        -3.728901         0.649227        -0.703640
 C        -4.372478        -0.082773        -1.952440
 O        -3.502078         0.756926        -2.853546
 C        -3.081075         1.597525        -1.705216
 H         1.457536         0.466640         0.626613
 H         1.351612        -1.321544         0.075035
 H         1.618562         0.161619        -1.093152
 H        -3.266818        -1.108032         0.360796
 H        -3.227539         0.374256         2.201561
 H        -4.432114         1.109613         0.000085
 H        -4.202971        -1.202127        -1.951019
 H        -5.423416         0.072819        -2.034981
 H        -2.002876         1.588713        -1.559139
 H        -3.519636         2.590029        -1.789003
