19
Iteration:  1013charge 0 multiplicity 1
 C         1.162329        -0.395092        -0.400524
 C        -0.294234        -0.440076        -0.334933
 C        -1.543534        -0.419098        -0.252630
 C        -2.823099        -0.031030         0.316792
 O        -2.693771         0.910122         1.425240
 C        -3.813366         0.553062        -0.668937
 C        -3.920588        -0.212361        -1.947456
 O        -3.222434         0.887139        -2.634656
 C        -3.443865         1.703037        -1.553140
 H         1.508672         0.531953         0.217508
 H         1.842241        -1.081463        -0.047561
 H         1.544700        -0.172486        -1.392798
 H        -3.268315        -1.002668         0.711848
 H        -3.468916         1.123629         1.918872
 H        -4.760682         0.598693        -0.079177
 H        -3.426894        -1.129499        -2.151549
 H        -4.993742        -0.310371        -2.321937
 H        -2.583055         2.322152        -1.231335
 H        -4.286242         2.438444        -1.709320
