19
Iteration:  2231
 C         1.588426        -0.443862         0.595843
 C         0.214823         0.152892         0.178434
 C        -0.979530         0.187201        -0.034657
 C        -2.400940         0.064143        -0.235805
 O        -3.198236        -0.042691         1.024139
 C        -3.043615         1.028958        -1.172122
 C        -4.553729         0.974319        -1.142012
 O        -4.703592         0.662628        -2.587490
 C        -3.223904         0.516360        -2.610544
 H         2.251161         0.272164         1.075057
 H         1.573890        -1.398501         1.125994
 H         2.243239        -0.626224        -0.242316
 H        -2.458256        -1.100547        -0.523899
 H        -2.490063        -0.088613         1.688124
 H        -2.746181         2.065643        -1.235182
 H        -4.948298         0.187800        -0.516796
 H        -5.173209         1.731549        -0.688205
 H        -3.049392        -0.589704        -2.721671
 H        -2.720138         1.038552        -3.432733
