19
Iteration:  4652charge 0 multiplicity 1
 C         1.484423         0.180158        -0.124243
 C         0.006518        -0.015448        -0.012410
 C        -1.153974        -0.384278        -0.030634
 C        -2.670682        -0.444815        -0.038809
 O        -3.183587        -0.497767         1.329256
 C        -3.342456         0.812798        -0.704756
 C        -4.720356         0.745114        -1.503011
 O        -4.076472         1.323364        -2.692912
 C        -2.741391         1.180589        -2.138730
 H         1.975226        -0.635406         0.428106
 H         1.916262         0.214261        -1.134785
 H         1.720385         1.127715         0.403348
 H        -3.048961        -1.267417        -0.596337
 H        -3.329903        -1.431558         1.598466
 H        -3.216032         1.645759        -0.067384
 H        -5.222700        -0.505928        -1.691395
 H        -5.538501         1.503687        -1.212433
 H        -2.204075         0.313924        -2.632113
 H        -1.944616         2.099194        -2.167260
