19
Iteration:  2109
 C         1.347344        -0.119576         0.258971
 C        -0.091548        -0.116714        -0.123510
 C        -1.255427        -0.143674        -0.307737
 C        -2.686094        -0.042471         0.121368
 O        -2.764268         0.502842         1.468595
 C        -3.309510         0.806667        -0.873085
 C        -4.734121         0.681031        -1.462548
 O        -4.237689         0.686575        -2.844025
 C        -2.814247         0.581618        -2.319709
 H         1.496847        -0.018328         1.302664
 H         1.867146        -1.047492        -0.207124
 H         2.044211         0.650686        -0.137854
 H        -3.127754        -0.953915         0.107446
 H        -2.075869         0.142190         2.083349
 H        -3.120524         1.830545        -0.562149
 H        -5.145212        -0.454744        -1.238450
 H        -5.467610         1.473258        -1.129790
 H        -2.535994        -0.463149        -2.460295
 H        -2.090942         1.221163        -2.811669
