19
Iteration:  4721
 C         1.500862         0.186111         0.240668
 C         0.095432        -0.053586        -0.028679
 C        -1.077528        -0.396882        -0.120077
 C        -2.579664        -0.479884        -0.195227
 O        -3.145396        -0.437924         1.170702
 C        -3.158106         0.775763        -0.851088
 C        -4.680672         0.817159        -1.292016
 O        -4.324272         1.503216        -2.599967
 C        -2.969378         0.943154        -2.330365
 H         1.743144        -0.090614         1.325451
 H         2.333101        -0.333167        -0.338732
 H         1.652696         1.217471         0.239551
 H        -2.806727        -1.406815        -0.621296
 H        -3.411384        -1.296819         1.543159
 H        -3.179266         1.692030        -0.217451
 H        -5.013988        -0.300720        -1.407582
 H        -5.228177         1.466301        -0.600441
 H        -2.762542         0.017784        -2.919553
 H        -2.096391         1.657764        -2.745174
