19
Iteration:  2557
 C         1.427054        -0.139169        -0.401825
 C        -0.033414        -0.201163        -0.074167
 C        -1.162252        -0.010628         0.326064
 C        -2.635052        -0.136988         0.164454
 O        -3.495495         0.028981         1.259961
 C        -3.145104         1.000144        -0.733739
 C        -4.520322         0.486587        -1.404813
 O        -4.010679         0.638940        -2.784242
 C        -2.784348         1.227149        -2.206634
 H         1.747199        -0.891189        -1.050532
 H         1.593366         0.828298        -0.863113
 H         2.192459         0.159518         0.377381
 H        -2.687629        -1.094775        -0.348881
 H        -3.347868        -0.627455         1.980317
 H        -3.381295         1.792959        -0.056036
 H        -4.701735        -0.619984        -1.209447
 H        -5.346212         1.121254        -1.025748
 H        -1.628696         0.786364        -2.449829
 H        -2.815742         2.303082        -2.520809
