19
Iteration:   807charge 0 multiplicity 1
 C         1.347018        -0.130237        -0.499974
 C        -0.102430         0.054312        -0.079679
 C        -1.205880         0.217324         0.338308
 C        -2.669147        -0.126426         0.233098
 O        -3.419769         0.118076         1.478358
 C        -3.178966         0.754621        -0.809948
 C        -4.506080         0.431697        -1.461147
 O        -3.981584         0.978763        -2.755982
 C        -2.619343         0.700383        -2.289827
 H         1.998251        -0.066514         0.478220
 H         1.445814        -1.127528        -0.984095
 H         1.736723         0.709094        -1.102076
 H        -2.762122        -1.231247        -0.090595
 H        -3.976161        -0.673113         1.735813
 H        -3.233940         1.825045        -0.402561
 H        -4.709791        -0.662717        -1.559399
 H        -5.401764         0.916128        -1.115605
 H        -2.276845        -0.323211        -2.497732
 H        -1.890325         1.447631        -2.701857
