19
Iteration:  2503charge 0 multiplicity 1
 C         1.347046         0.015860        -0.276844
 C         0.016519        -0.060052         0.205355
 C        -1.196724        -0.058433         0.220530
 C        -2.612825        -0.266034         0.049812
 O        -3.307086        -0.027421         1.296789
 C        -3.113445         0.856958        -0.866732
 C        -4.572855         0.673606        -1.374519
 O        -4.171239         0.908060        -2.746556
 C        -2.778212         0.893039        -2.343072
 H         1.388674        -0.452760        -1.217676
 H         1.773194         1.053367        -0.538636
 H         2.017674        -0.553823         0.376040
 H        -2.685166        -1.257766        -0.413175
 H        -3.014998        -0.636261         1.982647
 H        -3.032392         1.756844        -0.270022
 H        -4.895156        -0.432657        -1.209625
 H        -5.360423         1.284897        -0.910276
 H        -2.237760        -0.029576        -2.802554
 H        -2.091950         1.686779        -2.693057
