19
Iteration:  2607
 C         1.368919        -0.227412        -0.264224
 C        -0.040991         0.099091        -0.115423
 C        -1.269490        -0.030863        -0.079302
 C        -2.783444        -0.061462         0.080816
 O        -3.073721        -0.152350         1.537185
 C        -3.493259         1.091801        -0.676772
 C        -4.665915         0.684525        -1.635086
 O        -3.801922         0.485087        -2.786737
 C        -2.762259         1.146756        -2.041194
 H         1.394624        -1.394681        -0.187996
 H         1.996021         0.188599        -1.062382
 H         1.894467         0.176522         0.604959
 H        -2.949205        -1.032067        -0.297776
 H        -2.501168        -0.874214         1.751858
 H        -3.650505         1.970076         0.008989
 H        -5.196288        -0.158114        -1.292472
 H        -5.274971         1.544656        -1.940839
 H        -1.833556         0.757371        -1.998735
 H        -2.814744         2.222370        -2.340487
