19
Iteration:  4473charge 0 multiplicity 1
 C         1.412735        -0.030751        -0.125746
 C        -0.016170        -0.111520        -0.075290
 C        -1.215728        -0.084560        -0.018663
 C        -2.679512        -0.276280        -0.147100
 O        -3.251176        -0.565155         1.134905
 C        -3.299441         1.041021        -0.622126
 C        -4.686303         0.682207        -1.425041
 O        -3.892745         0.828452        -2.627984
 C        -2.826386         1.488006        -2.011898
 H         1.825912        -0.414196        -1.057135
 H         1.762339         1.001807         0.056725
 H         2.023607        -0.618441         0.615990
 H        -2.781267        -1.092651        -0.984541
 H        -2.586827        -1.001116         1.664263
 H        -3.404206         1.720184         0.168348
 H        -5.096919        -0.191275        -1.159239
 H        -5.381590         1.500416        -1.382427
 H        -1.922465         0.938288        -2.405984
 H        -3.114883         2.591977        -2.043499
