19
Iteration:  2688charge 0 multiplicity 1
 C         1.508086        -0.140114         0.046448
 C         0.061670        -0.197504        -0.141207
 C        -1.151648        -0.325025        -0.033624
 C        -2.633917        -0.106712        -0.033923
 O        -3.239323        -0.091503         1.306597
 C        -3.249220         1.069251        -0.804363
 C        -4.619736         0.552169        -1.309459
 O        -4.138371         0.676161        -2.775698
 C        -2.909984         1.332407        -2.242939
 H         2.033286        -0.662034         0.825306
 H         1.919404        -0.397307        -0.942760
 H         1.760339         0.944470         0.540979
 H        -3.000214        -1.076215        -0.458718
 H        -2.964299         0.797493         1.579092
 H        -3.216400         1.968844        -0.231991
 H        -4.971918        -0.474259        -1.084257
 H        -5.497161         1.139873        -1.029555
 H        -2.014121         0.912702        -2.685116
 H        -2.780580         2.420200        -2.310493
