19
Iteration:   750
 C         1.373245         0.223789        -0.248110
 C        -0.026920        -0.046631         0.098289
 C        -1.194767        -0.287417         0.112019
 C        -2.654649        -0.215473         0.165525
 O        -3.328442         0.034704         1.388612
 C        -3.061014         0.862137        -0.869240
 C        -4.564005         1.069378        -1.439359
 O        -4.164481         0.642217        -2.785774
 C        -2.770989         0.516187        -2.294468
 H         2.173830         0.004813         0.622863
 H         1.604086        -0.335276        -1.117110
 H         1.373387         1.283015        -0.587217
 H        -3.095796        -1.147358        -0.337126
 H        -2.890667        -0.074212         2.219275
 H        -2.534182         1.825506        -0.608817
 H        -5.304309         0.345949        -1.049473
 H        -4.931716         2.120076        -1.401483
 H        -2.294804        -0.462647        -2.431655
 H        -2.142209         1.294158        -2.769686
