19
Iteration:  2944
 C         1.342599         0.142989         0.696228
 C         0.036158        -0.067802         0.174587
 C        -1.016166        -0.243435        -0.398273
 C        -2.500645        -0.321782        -0.343644
 O        -2.986056        -0.414589         1.138104
 C        -2.930539         0.864206        -1.128715
 C        -4.388581         1.311705        -1.024750
 O        -4.610160         1.058677        -2.448295
 C        -3.301574         0.488613        -2.735835
 H         1.588166         1.245989         0.656937
 H         1.564137        -0.352388         1.683821
 H         2.084190        -0.199679        -0.060613
 H        -2.848212        -1.251851        -0.764439
 H        -2.360523         0.223712         1.538218
 H        -2.146453         1.635061        -0.888875
 H        -5.056050         0.640328        -0.394434
 H        -4.775148         2.282877        -0.757058
 H        -3.266881        -0.617886        -2.817762
 H        -2.858467         1.143157        -3.639963
