19
Iteration:  1573charge 0 multiplicity 1
 C         1.266344         0.363834         0.277415
 C        -0.013073        -0.225712         0.028461
 C        -1.222118        -0.359557        -0.134088
 C        -2.696071        -0.252930        -0.092319
 O        -3.161537        -0.192921         1.241123
 C        -2.922594         0.932923        -1.039770
 C        -4.315949         1.446089        -1.221766
 O        -4.372775         0.688566        -2.530216
 C        -2.989500         0.355234        -2.533249
 H         1.778280         0.677462        -0.748863
 H         1.056430         1.388825         0.789436
 H         2.074518        -0.077903         0.911073
 H        -3.262268        -1.188092        -0.407316
 H        -2.345759         0.000512         1.804566
 H        -2.071412         1.621077        -0.903460
 H        -4.989138         1.087449        -0.404278
 H        -4.363041         2.474404        -1.510300
 H        -2.900736        -0.785279        -2.555069
 H        -2.435406         0.889688        -3.292084
