19
Iteration:  3833
 C         1.307850        -0.046030        -0.464832
 C        -0.074622        -0.138866        -0.062220
 C        -1.284222        -0.274598         0.250980
 C        -2.713534        -0.262533         0.238622
 O        -3.389407         0.084870         1.509434
 C        -3.239631         0.779461        -0.725913
 C        -4.440113         0.474359        -1.632331
 O        -3.937358         1.096561        -2.785590
 C        -2.670499         1.100600        -2.196486
 H         1.473897        -0.120670        -1.587546
 H         1.756088         0.910635        -0.144579
 H         1.889319        -0.832424        -0.257898
 H        -3.029746        -1.360358        -0.038401
 H        -2.988705        -0.223459         2.342642
 H        -3.325643         1.730117        -0.242644
 H        -4.511736        -0.624024        -1.950980
 H        -5.437810         0.888678        -1.294930
 H        -1.942129         0.275106        -2.516304
 H        -1.993445         2.036024        -2.298321
