19
Iteration:  2817
 C         1.635706         0.140412         0.455492
 C         0.207730        -0.009254         0.109288
 C        -1.009812        -0.252236         0.041659
 C        -2.491308        -0.368479        -0.155893
 O        -3.232021        -0.343937         1.026728
 C        -3.081967         0.732142        -1.087058
 C        -4.554985         1.088440        -1.125581
 O        -4.553635         1.284211        -2.575664
 C        -3.262473         0.571418        -2.638626
 H         1.826254         0.634795         1.441174
 H         2.212575        -0.742955         0.397323
 H         2.050827         0.640191        -0.409164
 H        -2.649081        -1.426038        -0.616095
 H        -2.669348        -0.638943         1.749335
 H        -2.436488         1.621728        -0.771410
 H        -5.240580         0.329000        -0.689914
 H        -4.788384         2.151325        -0.777168
 H        -3.309798        -0.498986        -3.042811
 H        -2.466871         1.219517        -3.221761
