19
Iteration:  2427charge 0 multiplicity 1
 C         1.379848         0.200073         0.261784
 C         0.003089        -0.101718         0.006724
 C        -1.194986        -0.144775        -0.188552
 C        -2.649346        -0.282415         0.004020
 O        -2.952139        -0.114986         1.389000
 C        -3.179028         0.733547        -0.935406
 C        -4.682456         0.988480        -1.329186
 O        -4.214924         1.168466        -2.758706
 C        -3.015130         0.378438        -2.448579
 H         1.895767         0.463562        -0.649411
 H         1.523620         1.242434         0.789860
 H         1.901958        -0.683136         0.648715
 H        -2.914582        -1.334219        -0.455563
 H        -2.253327        -0.516653         1.976438
 H        -2.637936         1.673081        -0.845821
 H        -5.280188         0.120161        -1.069370
 H        -4.987270         1.925143        -0.896548
 H        -3.045309        -0.709139        -2.592330
 H        -2.187528         0.870198        -2.968929
