19
Iteration:   412
 C         1.370870         0.155452        -0.260382
 C        -0.009334        -0.139494         0.098834
 C        -1.223153        -0.234341         0.244436
 C        -2.739291        -0.152523         0.163554
 O        -3.142860         0.373912         1.525163
 C        -3.095862         0.806852        -0.976070
 C        -4.573792         1.030638        -1.501071
 O        -4.237812         0.524406        -2.828701
 C        -2.788623         0.407703        -2.359283
 H         1.627610        -0.212730        -1.329382
 H         1.583777         1.234050        -0.281081
 H         2.144314        -0.207689         0.445048
 H        -3.142564        -1.186188        -0.013688
 H        -2.694427        -0.217079         2.131130
 H        -2.643551         1.823261        -0.653399
 H        -5.233695         0.307980        -0.999873
 H        -4.972581         2.053103        -1.412820
 H        -2.293010        -0.557713        -2.532589
 H        -2.292466         1.254145        -2.933865
