19
Iteration:   735charge 0 multiplicity 1
 C         1.329401         0.278455        -0.116413
 C        -0.094944        -0.026391        -0.001416
 C        -1.246596        -0.303851         0.056786
 C        -2.745165        -0.290755         0.036542
 O        -3.275471         0.051843         1.367545
 C        -3.032504         0.867449        -0.886042
 C        -4.464574         1.107965        -1.314835
 O        -4.165863         0.563912        -2.659074
 C        -2.759936         0.526501        -2.414866
 H         1.823405        -0.011278         0.770251
 H         1.777929        -0.266184        -1.004004
 H         1.579860         1.344793        -0.166452
 H        -3.134744        -1.332148        -0.195821
 H        -2.426409         0.304789         1.813347
 H        -2.617035         1.740388        -0.449590
 H        -5.385257         0.704148        -0.827891
 H        -4.579154         2.223666        -1.440016
 H        -2.387503        -0.512586        -2.652149
 H        -2.139423         1.183672        -3.019885
