19
Iteration:  4466charge 0 multiplicity 1
 C         1.421806        -0.018800        -0.100228
 C        -0.011769        -0.145699        -0.047645
 C        -1.225098        -0.113208        -0.031978
 C        -2.568371        -0.261628        -0.202192
 O        -3.242896        -0.508546         1.143456
 C        -3.340285         0.951780        -0.655998
 C        -4.671860         0.739552        -1.398620
 O        -3.952230         0.817707        -2.665851
 C        -2.850773         1.489580        -1.978326
 H         1.780066        -0.296437        -1.086395
 H         1.698930         0.984360         0.202125
 H         1.938453        -0.633074         0.707010
 H        -2.710739        -1.189339        -0.889207
 H        -2.665264        -1.133928         1.621485
 H        -3.225244         1.747039         0.163968
 H        -5.155180        -0.320622        -1.214594
 H        -5.466681         1.575945        -1.186056
 H        -1.884130         1.222856        -2.465088
 H        -2.941775         2.543140        -2.045019
