19
Iteration:  1376
 C         1.349185        -0.389327        -0.182563
 C        -0.136863        -0.231164        -0.103590
 C        -1.294155        -0.009661        -0.136057
 C        -2.713812        -0.081267         0.180023
 O        -2.976510         0.288522         1.622293
 C        -3.616271         0.804685        -0.717322
 C        -4.426878         0.091271        -1.842641
 O        -3.800279         0.811413        -2.902705
 C        -2.935607         1.563229        -1.912249
 H         1.723901         0.326112        -0.973922
 H         1.859273        -0.123377         0.668326
 H         1.791444        -1.304081        -0.599538
 H        -3.046918        -1.133541         0.086830
 H        -2.201569         0.068182         2.130083
 H        -4.210605         1.592344        -0.184955
 H        -4.280503        -1.053978        -1.859245
 H        -5.574993         0.140957        -1.782779
 H        -1.838754         1.473464        -2.013901
 H        -3.200937         2.612350        -1.935916
