19
Iteration:  4123charge 0 multiplicity 1
 C         1.605041        -0.031813         0.412929
 C         0.103514        -0.137197         0.141782
 C        -1.030417        -0.344221        -0.153909
 C        -2.489418        -0.248750        -0.260760
 O        -3.234500        -0.440009         0.940799
 C        -3.042194         1.102307        -0.925743
 C        -4.658920         1.099088        -1.123488
 O        -4.478110         0.780434        -2.504411
 C        -3.072755         1.133223        -2.475805
 H         1.859672        -0.280859         1.447385
 H         2.124405        -0.858468        -0.125693
 H         1.957983         0.951363         0.055016
 H        -2.843725        -1.003989        -1.077226
 H        -2.609061        -0.875479         1.554523
 H        -2.659784         2.005356        -0.265920
 H        -5.305622         0.361461        -0.739713
 H        -5.240671         2.031537        -0.934928
 H        -2.463237         0.309742        -2.948702
 H        -3.116218         2.184494        -2.859674
