19
Iteration:  4970charge 0 multiplicity 1
 C         1.532750        -0.200000         0.465825
 C         0.180937        -0.190222         0.153921
 C        -0.980951        -0.119358        -0.257263
 C        -2.464981        -0.205774        -0.386537
 O        -3.056240        -0.366217         0.965851
 C        -3.207151         1.062106        -0.819450
 C        -4.752341         0.808682        -1.183237
 O        -4.493532         0.918851        -2.602108
 C        -3.085311         1.276707        -2.326543
 H         2.184545         0.563001        -0.073058
 H         1.721514        -0.056808         1.597849
 H         1.970179        -1.135196         0.257237
 H        -2.801629        -1.010714        -1.139854
 H        -2.896421        -1.209238         1.461648
 H        -3.056326         1.875483        -0.111245
 H        -5.177886        -0.376319        -0.830869
 H        -5.421506         1.538528        -0.815554
 H        -2.202582         0.642196        -2.748603
 H        -2.914249         2.299929        -2.717226
