19
Iteration:   490
 C         1.511231        -0.111885         0.549558
 C         0.197516        -0.052964        -0.068464
 C        -1.030310        -0.114366        -0.000696
 C        -2.552470        -0.083145        -0.058550
 O        -2.927090         0.424665         1.261773
 C        -3.146973         0.804515        -1.109277
 C        -4.687862         0.733018        -1.158400
 O        -4.572937         0.646441        -2.753631
 C        -3.152068         0.480758        -2.646810
 H         2.058675        -0.902622         0.021656
 H         2.178227         0.831691         0.395579
 H         1.491637        -0.250920         1.638645
 H        -2.999062        -1.121487        -0.186528
 H        -2.657424         1.372289         1.139820
 H        -2.676614         1.864548        -0.956858
 H        -5.240537        -0.106188        -0.726767
 H        -5.256251         1.664210        -0.887640
 H        -2.777422        -0.496606        -3.060427
 H        -2.505582         1.295447        -3.128677
