19
Iteration:  3431charge 0 multiplicity 1
 C         1.533354         0.069773         0.422648
 C         0.054306        -0.170806         0.057630
 C        -1.164014        -0.392451        -0.170128
 C        -2.670021        -0.196774        -0.142742
 O        -2.942967        -0.043555         1.222755
 C        -3.062383         0.993576        -0.998845
 C        -4.643197         1.039999        -1.227451
 O        -4.420251         0.938579        -2.678885
 C        -3.031155         0.639004        -2.483847
 H         1.770052        -0.402654         1.423963
 H         2.067170        -0.538635        -0.299730
 H         1.597406         1.163227         0.406634
 H        -3.305438        -1.197329        -0.437586
 H        -2.971826        -0.947036         1.647974
 H        -2.636643         2.019193        -0.587751
 H        -5.248213         0.101948        -1.011264
 H        -5.227559         1.952892        -1.172027
 H        -2.721551        -0.436472        -2.563882
 H        -2.423550         1.340927        -3.127673
