19
Iteration:  4476charge 0 multiplicity 1
 C         1.423753        -0.030160        -0.136682
 C        -0.012661        -0.098143        -0.083475
 C        -1.213761        -0.075536        -0.014383
 C        -2.722363        -0.270063        -0.112882
 O        -3.257852        -0.592530         1.126798
 C        -3.295826         1.064939        -0.616251
 C        -4.661260         0.676039        -1.425495
 O        -3.884494         0.820319        -2.625923
 C        -2.826505         1.494948        -2.018749
 H         1.825208        -0.407506        -1.052141
 H         1.772040         0.984635        -0.082373
 H         1.994111        -0.674626         0.637396
 H        -2.891613        -1.100164        -1.000511
 H        -2.534339        -0.963808         1.686677
 H        -3.464124         1.764109         0.248484
 H        -5.135958        -0.286397        -1.171410
 H        -5.440542         1.533806        -1.455937
 H        -1.877139         0.999354        -2.349049
 H        -2.974936         2.506917        -2.106532
