19
Iteration:  4356
 C         1.626706        -0.026032         0.446632
 C         0.173092        -0.037660         0.121183
 C        -1.022395        -0.148905        -0.139514
 C        -2.495744        -0.367044        -0.294553
 O        -3.115058        -0.603156         1.045249
 C        -3.186152         0.903657        -0.915686
 C        -4.752713         0.816989        -1.233735
 O        -4.505082         1.379301        -2.560141
 C        -3.081396         0.999250        -2.446464
 H         2.189737         0.595682        -0.204851
 H         1.851257         0.195727         1.483758
 H         2.084293        -1.097303         0.194984
 H        -2.683745        -1.239427        -0.841913
 H        -2.466310        -0.288771         1.712044
 H        -2.732378         1.883699        -0.493969
 H        -5.106505        -0.283419        -1.187719
 H        -5.550227         1.461272        -0.731104
 H        -2.999400         0.014068        -2.827115
 H        -2.522242         1.819621        -2.853134
