19
Iteration:  4884charge 0 multiplicity 1
 C         1.486568        -0.232277         0.600161
 C         0.106966        -0.055113         0.275549
 C        -0.955102        -0.187996        -0.329825
 C        -2.445972        -0.164693        -0.411685
 O        -3.045066        -0.624357         0.732957
 C        -3.095584         1.249083        -0.909883
 C        -4.628522         1.095811        -1.018405
 O        -4.563588         0.724247        -2.428421
 C        -3.205847         1.184430        -2.453150
 H         1.884534         0.790298         0.934165
 H         1.596877        -0.959105         1.500239
 H         2.038286        -0.486803        -0.243614
 H        -2.714476        -0.789116        -1.247649
 H        -2.398958        -0.629977         1.462784
 H        -2.611615         1.985835        -0.384126
 H        -4.977050         0.231199        -0.507334
 H        -5.039041         2.149946        -0.874938
 H        -2.599489         0.508577        -3.010755
 H        -3.310137         2.069696        -3.072269
