19
Iteration:  4052charge 0 multiplicity 1
 C         1.553152        -0.348931         0.109018
 C         0.148574        -0.012148        -0.027284
 C        -1.076734         0.001347         0.015313
 C        -2.616115        -0.081384        -0.104338
 O        -3.232655        -0.308319         1.114061
 C        -3.330613         1.139492        -0.724869
 C        -4.646971         0.683755        -1.361173
 O        -4.224987         0.728406        -2.721434
 C        -2.943684         1.277792        -2.205825
 H         1.733759        -1.317831         0.666065
 H         2.055706        -0.671546        -0.839755
 H         2.179270         0.514044         0.477057
 H        -2.772244        -1.034013        -0.886685
 H        -2.825267        -0.986248         1.662976
 H        -3.142133         1.994677        -0.183188
 H        -5.171348        -0.201128        -0.917732
 H        -5.532776         1.350944        -1.253218
 H        -2.195561         0.591720        -2.492455
 H        -2.773421         2.279938        -2.456166
