19
Iteration:  4710
 C         1.444333         0.212035         0.228318
 C         0.053739        -0.115826        -0.066718
 C        -1.134977        -0.283036        -0.147401
 C        -2.583933        -0.456975        -0.115885
 O        -3.107789        -0.450643         1.217715
 C        -3.198161         0.732384        -0.835513
 C        -4.624728         0.765260        -1.318998
 O        -4.259747         1.485959        -2.577131
 C        -2.924765         0.994989        -2.341879
 H         1.684728        -0.246048         1.241203
 H         2.080281        -0.274123        -0.589269
 H         1.663708         1.232989         0.228568
 H        -2.910259        -1.282028        -0.648981
 H        -3.436138        -1.342515         1.295871
 H        -2.708179         1.576639        -0.300204
 H        -5.208455        -0.236370        -1.580158
 H        -5.423248         1.340307        -0.794361
 H        -2.942395        -0.011203        -2.830420
 H        -2.005860         1.662215        -2.619338
