19
Iteration:  1405charge 0 multiplicity 1
 C         1.374011        -0.431652        -0.316048
 C        -0.072773         0.111313        -0.070634
 C        -1.243851         0.002120         0.133423
 C        -2.736340        -0.090004         0.203331
 O        -3.079415         0.130610         1.606388
 C        -3.592025         0.796937        -0.701284
 C        -4.487553         0.198575        -1.822799
 O        -3.892296         0.901342        -2.900234
 C        -2.835700         1.290777        -2.059899
 H         1.889542        -0.020570        -1.148859
 H         2.076799        -0.171247         0.613039
 H         1.519571        -1.508521        -0.426734
 H        -3.086549        -1.139443        -0.073578
 H        -2.225699         0.246427         2.112955
 H        -4.037342         1.731449        -0.280527
 H        -4.179997        -0.841506        -1.838760
 H        -5.509717         0.501427        -1.764416
 H        -1.796696         0.902899        -2.191004
 H        -2.682456         2.423946        -2.213023
