19
Iteration:  3659charge 0 multiplicity 1
 C         1.553008         0.026035         0.516157
 C         0.114567        -0.284817         0.130145
 C        -1.095382        -0.492447        -0.089723
 C        -2.538653        -0.217989        -0.272505
 O        -3.113873        -0.059246         1.072134
 C        -3.021595         1.085448        -1.048819
 C        -4.623912         1.065360        -1.170375
 O        -4.540608         0.631076        -2.541436
 C        -3.078306         1.023795        -2.612295
 H         1.619330         1.121978         0.537068
 H         1.853085        -0.480447         1.473468
 H         2.448913        -0.402302        -0.185931
 H        -3.033747        -1.218696        -0.753951
 H        -2.403281        -0.325161         1.718632
 H        -2.516850         2.024727        -0.697228
 H        -5.105518         0.584823        -0.366698
 H        -5.076341         2.115513        -1.068307
 H        -2.683888         0.150968        -3.018516
 H        -3.067992         1.956810        -3.095050
