19
Iteration:  1964charge 0 multiplicity 1
 C         1.112356        -0.103699        -0.733412
 C        -0.057126        -0.010279         0.136874
 C        -1.270404         0.029205         0.407991
 C        -2.701759        -0.035556         0.278021
 O        -3.550962         0.272958         1.423937
 C        -2.958434         0.916560        -0.862009
 C        -4.415790         0.939666        -1.402929
 O        -3.997572         0.464047        -2.708762
 C        -2.544999         0.373984        -2.287344
 H         1.741312        -0.927363        -0.528186
 H         0.759307         0.027572        -1.849800
 H         1.812226         0.767924        -0.593006
 H        -2.878333        -1.047524        -0.126432
 H        -3.053947         0.834736         2.005510
 H        -2.424608         1.858326        -0.613414
 H        -4.870524         0.195685        -0.843077
 H        -4.936872         1.882429        -1.607264
 H        -2.151252        -0.617581        -2.415002
 H        -1.906981         1.070160        -2.822284
