19
Iteration:    56charge 0 multiplicity 1
 C         1.510333        -0.433792         0.401204
 C         0.163866        -0.006294         0.049033
 C        -1.006832         0.236348        -0.157190
 C        -2.486492        -0.029463        -0.013348
 O        -2.853974         0.326868         1.405601
 C        -3.412279         0.930415        -0.982183
 C        -4.831976         0.360835        -1.422224
 O        -4.452833         0.717945        -2.827555
 C        -3.043775         0.840978        -2.453996
 H         1.823740        -0.334548         1.431341
 H         1.566748        -1.550738         0.292638
 H         2.267457         0.058252        -0.248092
 H        -2.734043        -1.068401        -0.136950
 H        -2.300606         1.164197         1.472773
 H        -3.552255         1.906897        -0.580567
 H        -4.830631        -0.743663        -1.414547
 H        -5.744604         0.795304        -1.111130
 H        -2.648093        -0.113361        -2.655905
 H        -2.365181         1.557032        -2.884801
