19
Iteration:  2999charge 0 multiplicity 1
 C         1.730667        -0.120965         0.500697
 C         0.311073        -0.084510         0.190947
 C        -0.924791        -0.058258         0.086887
 C        -2.432054        -0.188097        -0.171153
 O        -3.279747        -0.353395         0.962532
 C        -3.058933         0.917538        -1.159049
 C        -4.618974         1.117800        -1.135113
 O        -4.740610         0.884728        -2.568201
 C        -3.281036         0.771279        -2.631564
 H         2.268930         0.793368         0.275575
 H         1.770225        -0.259032         1.605997
 H         2.283110        -0.921151        -0.013871
 H        -2.416585        -1.127893        -0.715749
 H        -2.816380         0.065077         1.744143
 H        -2.486124         1.873445        -0.971440
 H        -5.143670         0.355951        -0.570369
 H        -4.961840         2.119015        -1.021775
 H        -2.824554        -0.108111        -3.039829
 H        -2.791515         1.600071        -3.314170
