19
Iteration:   627charge 0 multiplicity 1
 C         1.624932         0.023924         0.755272
 C         0.135225        -0.038946         0.287357
 C        -0.989628        -0.155247        -0.123803
 C        -2.445093        -0.058222        -0.351135
 O        -3.010073         0.184937         1.030726
 C        -3.002182         0.984715        -1.305839
 C        -4.502096         1.141255        -1.191519
 O        -4.731485         0.380640        -2.399605
 C        -3.398129         0.482812        -2.719436
 H         1.749502        -1.050301         1.125869
 H         2.345866        -0.036719        -0.114924
 H         1.943086         0.867768         1.410727
 H        -2.665513        -1.116215        -0.747385
 H        -2.710534        -0.523278         1.603206
 H        -2.443923         1.883211        -1.194171
 H        -4.924354         0.581267        -0.329832
 H        -4.962449         2.128767        -1.096991
 H        -2.992994        -0.502350        -3.075497
 H        -3.272907         1.311120        -3.419853
