19
Iteration:  1882charge 0 multiplicity 1
 C         1.295663         0.021914        -0.135641
 C        -0.160439        -0.179591        -0.183228
 C        -1.357278        -0.269743         0.041936
 C        -2.801580        -0.119969         0.212529
 O        -2.991521         0.523393         1.449905
 C        -3.179057         0.937908        -0.888034
 C        -4.592914         0.891930        -1.457265
 O        -4.025667         0.415188        -2.749825
 C        -2.705272         0.567266        -2.273103
 H         1.727862        -1.056683        -0.324760
 H         1.756614         0.499350        -0.949974
 H         1.525709         0.480492         0.828853
 H        -3.333505        -0.968974        -0.039725
 H        -2.526984         0.028603         2.184119
 H        -2.779611         1.905076        -0.622539
 H        -5.444383         0.272168        -0.975519
 H        -5.130966         1.793521        -1.614695
 H        -2.085033        -0.392717        -2.205769
 H        -2.132765         1.384004        -2.811846
