19
Iteration:  2337charge 0 multiplicity 1
 C         1.482332         0.122367         0.542652
 C         0.174319        -0.247556         0.202609
 C        -1.008747        -0.226956        -0.073647
 C        -2.463325        -0.286464        -0.248552
 O        -3.244414         0.129256         0.970463
 C        -2.913601         0.838646        -1.225706
 C        -4.450084         1.028134        -1.021820
 O        -4.650742         0.879584        -2.436460
 C        -3.196847         0.537044        -2.692069
 H         1.780712         1.060635         0.141531
 H         1.623010         0.311116         1.695026
 H         2.171712        -0.727840         0.161380
 H        -2.809139        -1.331530        -0.515873
 H        -2.784899        -0.411466         1.644923
 H        -2.379150         1.759833        -1.034293
 H        -4.950758         0.256047        -0.437389
 H        -4.689222         2.087313        -0.811933
 H        -3.012761        -0.430963        -3.248830
 H        -2.840971         1.263334        -3.471489
