19
Iteration:  3237charge 0 multiplicity 1
 C         1.172535        -0.137833        -0.585304
 C        -0.162891        -0.046149        -0.101179
 C        -1.335922        -0.072612         0.211211
 C        -2.755668        -0.162792         0.206627
 O        -3.338361        -0.036379         1.473545
 C        -3.250513         0.966204        -0.671188
 C        -4.546385         0.534882        -1.587361
 O        -3.718393         0.746856        -2.801269
 C        -2.549439         1.104308        -1.988372
 H         1.249130        -0.989145        -1.329924
 H         1.273793         0.727644        -1.282113
 H         1.915026        -0.208737         0.134443
 H        -2.912437        -1.260802        -0.324493
 H        -2.647172         0.336765         2.090431
 H        -3.368127         1.815944        -0.032439
 H        -4.961018        -0.467573        -1.421922
 H        -5.440174         1.165473        -1.593084
 H        -1.678955         0.317359        -2.135870
 H        -2.090135         2.121368        -2.188370
