19
Iteration:  2455
 C         1.492340         0.094339         0.110170
 C         0.066651         0.069226        -0.230997
 C        -1.118079        -0.135480         0.009890
 C        -2.657435        -0.269096         0.115014
 O        -3.150208        -0.177399         1.412519
 C        -3.237071         0.802004        -0.803792
 C        -4.723577         0.902438        -1.483606
 O        -4.140077         1.126230        -2.805922
 C        -2.991897         0.510880        -2.316972
 H         2.244157         0.138029        -0.733192
 H         1.741533         1.042134         0.430536
 H         1.767291        -0.716535         0.844622
 H        -2.911104        -1.193282        -0.308870
 H        -2.541685        -0.570454         2.075218
 H        -2.775237         1.783738        -0.596961
 H        -5.312858        -0.005872        -1.165152
 H        -5.281299         1.834567        -1.196482
 H        -2.926273        -0.749097        -2.499616
 H        -2.046471         0.734173        -2.881282
