19
Iteration:  4668charge 0 multiplicity 1
 C         1.413781         0.192095         0.011805
 C        -0.006592        -0.062828        -0.053797
 C        -1.181405        -0.317000        -0.065214
 C        -2.649628        -0.444441        -0.041580
 O        -3.083638        -0.514932         1.322243
 C        -3.271547         0.794296        -0.767518
 C        -4.675240         0.818859        -1.498218
 O        -4.130668         1.404639        -2.665730
 C        -2.812977         1.051724        -2.175489
 H         2.031561        -0.517082         0.630216
 H         1.790381         0.020959        -1.037690
 H         1.738375         1.180889         0.345154
 H        -2.863389        -1.443503        -0.523377
 H        -3.427358        -1.387962         1.512716
 H        -3.305591         1.701797         0.004490
 H        -4.916795        -0.274851        -1.732867
 H        -5.576121         1.200309        -1.081581
 H        -2.328445         0.191020        -2.641946
 H        -2.217363         1.868516        -2.421155
