19
Iteration:  2564charge 0 multiplicity 1
 C         1.391652        -0.116393        -0.388233
 C        -0.034755        -0.180602        -0.118125
 C        -1.194516         0.051737         0.261425
 C        -2.635393        -0.129908         0.128687
 O        -3.451798         0.018607         1.285361
 C        -3.213359         0.950011        -0.724232
 C        -4.506084         0.487608        -1.396614
 O        -3.939819         0.612129        -2.759552
 C        -2.768109         1.248846        -2.161724
 H         1.724448        -1.130771        -0.851128
 H         1.658717         0.742975        -1.038847
 H         2.033668        -0.089669         0.575839
 H        -2.952833        -1.134823        -0.387187
 H        -3.317877        -0.682697         1.919991
 H        -3.272349         1.910003        -0.153974
 H        -4.729207        -0.527053        -1.163892
 H        -5.369006         1.168530        -1.206397
 H        -1.980857         0.750163        -2.524005
 H        -2.712754         2.324426        -2.320026
