19
Iteration:  3825
 C         1.353221        -0.055480        -0.477001
 C        -0.089501        -0.096422        -0.049892
 C        -1.220932        -0.302615         0.234073
 C        -2.686689        -0.256838         0.298604
 O        -3.440547         0.060685         1.493333
 C        -3.220882         0.817302        -0.785061
 C        -4.501044         0.450898        -1.594932
 O        -3.944084         1.135853        -2.820180
 C        -2.630105         1.075247        -2.176383
 H         1.279158         0.006792        -1.564409
 H         1.758005         0.853724        -0.009086
 H         1.873339        -1.074975        -0.119100
 H        -2.982475        -1.217478        -0.081660
 H        -2.873231        -0.191680         2.267131
 H        -3.312399         1.798167        -0.199410
 H        -4.509427        -0.696111        -1.849227
 H        -5.470990         0.823892        -1.170122
 H        -2.178349         0.136099        -2.487725
 H        -2.191106         2.004979        -2.466269
