19
Iteration:  2938
 C         1.357656         0.183545         0.695779
 C         0.038129        -0.062244         0.145389
 C        -1.048091        -0.316414        -0.376454
 C        -2.496528        -0.379677        -0.301254
 O        -2.950675        -0.387635         1.112257
 C        -2.963107         0.843208        -1.181356
 C        -4.383488         1.280099        -1.039520
 O        -4.616266         1.082896        -2.455364
 C        -3.285346         0.543417        -2.715552
 H         1.326940         1.295154         0.959906
 H         1.517275        -0.278834         1.651097
 H         2.157946        -0.221477         0.076405
 H        -2.956063        -1.328853        -0.695719
 H        -2.208044         0.130568         1.544413
 H        -2.217618         1.648356        -1.014420
 H        -4.971332         0.808649        -0.239339
 H        -4.621266         2.372857        -0.757878
 H        -3.390374        -0.557482        -2.781203
 H        -2.914904         1.051905        -3.515210
