19
Iteration:  4429charge 0 multiplicity 1
 C         1.565622         0.019585         0.120690
 C         0.125890        -0.145225         0.009825
 C        -1.060242        -0.335089        -0.146074
 C        -2.568051        -0.270361        -0.162072
 O        -3.204239        -0.476756         1.250047
 C        -3.284910         0.963425        -0.755548
 C        -4.749427         0.759955        -1.350102
 O        -4.213420         0.968425        -2.696964
 C        -2.930679         1.461825        -2.214738
 H         2.115515         0.135903        -0.830572
 H         1.792911         0.953439         0.683168
 H         1.995623        -0.910139         0.553397
 H        -2.961470        -1.225066        -0.851799
 H        -3.220029        -1.427273         1.347567
 H        -3.162847         1.724729        -0.027973
 H        -5.036503        -0.218317        -1.425237
 H        -5.633090         1.442510        -1.119705
 H        -2.056384         0.846496        -2.641145
 H        -3.038653         2.514446        -2.088135
