19
Iteration:  2274
 C         1.557877        -0.269271         0.610026
 C         0.199715         0.041254         0.246149
 C        -0.937343         0.350121        -0.052354
 C        -2.458305        -0.095236        -0.218329
 O        -2.989147        -0.255594         1.106203
 C        -3.110588         0.941823        -1.139447
 C        -4.595769         1.233459        -1.297607
 O        -4.757136         0.741415        -2.622287
 C        -3.291235         0.389335        -2.585088
 H         2.192966         0.548210         0.654581
 H         1.429767        -1.035135         1.460510
 H         2.025718        -0.973293        -0.102194
 H        -2.515117        -1.127858        -0.720621
 H        -2.264894        -0.472546         1.686913
 H        -2.490241         1.820590        -1.056356
 H        -5.221768         0.868684        -0.512799
 H        -4.779664         2.318326        -1.327318
 H        -2.887237        -0.634241        -2.902029
 H        -2.649537         0.979923        -3.214499
