19
Iteration:   982
 C         1.158106        -0.281767        -0.226373
 C        -0.274313        -0.357272        -0.248228
 C        -1.544699        -0.230478        -0.326984
 C        -2.870656        -0.143534         0.259664
 O        -2.495641         0.778985         1.417232
 C        -3.921569         0.624781        -0.668168
 C        -4.198829        -0.156442        -1.974462
 O        -3.323447         0.804400        -2.743204
 C        -3.211780         1.614023        -1.592306
 H         1.455823         0.607162         0.539538
 H         1.775967        -1.120375         0.008745
 H         1.463955        -0.050289        -1.286072
 H        -3.199331        -1.138777         0.500301
 H        -2.989481         0.670212         2.291862
 H        -4.735709         0.974799         0.031358
 H        -3.703879        -1.164106        -1.861357
 H        -5.308622        -0.193613        -2.327854
 H        -2.189166         1.804279        -1.188876
 H        -3.770519         2.619670        -1.705240
