19
Iteration:  1881
 C         1.301596         0.016516        -0.126586
 C        -0.149961        -0.179067        -0.180617
 C        -1.367935        -0.284608         0.047448
 C        -2.794889        -0.113881         0.201674
 O        -2.989076         0.528390         1.439239
 C        -3.177170         0.939097        -0.889454
 C        -4.597847         0.879461        -1.448152
 O        -4.030010         0.418777        -2.751228
 C        -2.711127         0.575112        -2.278288
 H         1.738128        -1.041667        -0.297230
 H         1.735680         0.536936        -0.950762
 H         1.566023         0.473991         0.837653
 H        -3.317638        -0.959797         0.004885
 H        -2.534162         0.019172         2.177392
 H        -2.787472         1.898932        -0.633510
 H        -5.434185         0.285231        -0.954134
 H        -5.137961         1.789892        -1.626849
 H        -2.114617        -0.397112        -2.196915
 H        -2.148949         1.406550        -2.806030
