19
Iteration:  1790
 C         1.714964        -0.436625         0.466806
 C         0.270028        -0.095116         0.212314
 C        -0.980348         0.062445        -0.038891
 C        -2.444353         0.101904        -0.083329
 O        -3.155586         0.447465         1.185815
 C        -3.242382         0.969936        -1.162537
 C        -4.690040         0.583741        -1.279712
 O        -4.640998         0.684645        -2.698748
 C        -3.137619         0.587295        -2.600331
 H         1.882322        -1.305565        -0.079513
 H         2.590826         0.234987         0.167093
 H         1.768967        -0.652153         1.543674
 H        -2.685857        -0.901951        -0.286322
 H        -2.498836         0.428426         1.884833
 H        -3.061828         2.045766        -0.972891
 H        -4.955672        -0.357036        -0.798786
 H        -5.457768         1.326276        -0.849057
 H        -2.763811        -0.474261        -2.875925
 H        -2.680127         1.435605        -3.232684
