19
Iteration:  1644
 C         1.458585         0.099132         0.763412
 C         0.096559        -0.232949         0.198812
 C        -1.046525        -0.250898        -0.093214
 C        -2.427471        -0.224056        -0.270286
 O        -3.056955         0.092812         0.950141
 C        -2.879252         0.824651        -1.335453
 C        -4.355192         1.209459        -1.056810
 O        -4.741050         0.572719        -2.387063
 C        -3.352822         0.588234        -2.771579
 H         2.155964         0.034679        -0.090900
 H         1.556768         1.163064         0.995395
 H         1.842166        -0.428880         1.629089
 H        -2.912871        -1.248594        -0.637373
 H        -2.441769         0.774893         1.359472
 H        -2.275852         1.751967        -1.192731
 H        -4.941039         0.714954        -0.246891
 H        -4.601920         2.359560        -1.028398
 H        -3.061840        -0.328358        -3.254961
 H        -3.202124         1.533202        -3.292241
