19
Iteration:   511
 C         1.581735        -0.256207         0.649421
 C         0.229045         0.037876         0.112350
 C        -0.952910         0.100585        -0.205052
 C        -2.414168        -0.018235        -0.061952
 O        -2.903840         0.324368         1.270435
 C        -3.180122         0.780070        -1.155833
 C        -4.714302         0.768561        -1.319862
 O        -4.720168         0.671948        -2.669736
 C        -3.240251         0.439291        -2.683986
 H         2.018589        -1.201984         0.309149
 H         2.316990         0.511075         0.506241
 H         1.450085        -0.228794         1.721602
 H        -2.521627        -1.134476        -0.062097
 H        -2.849455         1.258151         1.468017
 H        -2.724800         1.858443        -1.106937
 H        -5.189780        -0.105007        -0.839326
 H        -5.306100         1.642235        -0.970378
 H        -3.029990        -0.618724        -2.800287
 H        -2.605570         1.020946        -3.393504
