19
Iteration:  2178
 C         1.607219        -0.171423         0.458713
 C         0.170966        -0.386011         0.307218
 C        -1.010149        -0.089337         0.023932
 C        -2.444745        -0.087692        -0.112893
 O        -3.010105         0.475653         1.135686
 C        -3.114053         0.871367        -1.129710
 C        -4.662799         0.654146        -1.200681
 O        -4.670083         0.676084        -2.701702
 C        -3.191652         0.806348        -2.730454
 H         1.860459         0.517675         1.361828
 H         2.061233        -1.121783         0.566190
 H         2.162791         0.244859        -0.366928
 H        -2.789326        -1.040435        -0.209418
 H        -2.612637        -0.072489         1.825837
 H        -2.904592         1.918148        -0.923367
 H        -5.025059        -0.328221        -0.670768
 H        -5.199885         1.600986        -0.891567
 H        -2.736885         0.069687        -3.340070
 H        -2.911275         1.779517        -3.221822
