19
Iteration:   225
 C         1.340432        -0.217437        -0.178186
 C        -0.119283        -0.201646        -0.209389
 C        -1.313281         0.080752        -0.034080
 C        -2.735095         0.038754         0.306523
 O        -2.931608         0.612207         1.551474
 C        -3.518423         0.800242        -0.793932
 C        -4.670160         0.221967        -1.644384
 O        -3.924203         0.600927        -2.872463
 C        -2.665321         0.908604        -2.121892
 H         1.768631         0.797839        -0.615903
 H         1.720398        -0.416160         0.816391
 H         1.727324        -1.078661        -0.774511
 H        -3.010408        -1.021882         0.203780
 H        -2.591418         0.004162         2.266366
 H        -3.783941         1.836599        -0.380165
 H        -4.820185        -0.868018        -1.584376
 H        -5.560374         0.886318        -1.552587
 H        -1.937372         0.128068        -2.215440
 H        -2.349386         1.921894        -2.449929
