19
Iteration:   847charge 0 multiplicity 1
 C         1.296773        -0.302625        -0.485987
 C        -0.040755         0.188116        -0.111182
 C        -1.222341         0.078297         0.353306
 C        -2.644653        -0.199031         0.262824
 O        -3.243099         0.269227         1.616276
 C        -3.349999         0.734132        -0.812394
 C        -4.460572         0.134572        -1.692294
 O        -3.970443         0.961267        -2.862046
 C        -2.720332         1.088965        -2.128407
 H         1.996959        -0.089426         0.349420
 H         1.325928        -1.356801        -0.650428
 H         1.661858         0.170285        -1.407242
 H        -2.828345        -1.245391         0.071321
 H        -4.119023        -0.100846         1.698313
 H        -3.678370         1.613877        -0.259450
 H        -4.298499        -0.923244        -1.971367
 H        -5.504989         0.394380        -1.311239
 H        -1.967967         0.325496        -2.478535
 H        -2.171680         2.039640        -2.250482
