19
Iteration:  4078
 C         1.480909        -0.233309         0.175339
 C         0.085256        -0.198576         0.137619
 C        -1.052563         0.090995        -0.062645
 C        -2.543319        -0.145214        -0.194339
 O        -3.209611        -0.391357         1.059260
 C        -3.220181         1.052155        -0.815760
 C        -4.665933         0.829509        -1.236565
 O        -4.270815         0.737292        -2.599676
 C        -2.981057         1.254777        -2.375450
 H         1.903608        -0.936478         0.963526
 H         2.014150        -0.693628        -0.707765
 H         1.811984         0.773130         0.255625
 H        -2.629507        -1.026208        -0.867507
 H        -2.692810        -0.936059         1.658215
 H        -2.871647         1.995863        -0.330994
 H        -5.220664         0.022227        -0.858702
 H        -5.379082         1.715082        -1.127918
 H        -2.327276         0.528199        -2.906607
 H        -2.875856         2.369695        -2.498197
