19
Iteration:  4032
 C         1.485180        -0.365187         0.016736
 C         0.082993         0.026957        -0.048021
 C        -1.111109        -0.038159         0.008448
 C        -2.580474        -0.028998        -0.059843
 O        -3.225650        -0.263834         1.254802
 C        -3.332757         1.073141        -0.755101
 C        -4.736158         0.596566        -1.384545
 O        -4.097869         0.753820        -2.739242
 C        -2.861880         1.345196        -2.229325
 H         1.568765        -1.483101         0.351050
 H         2.075342        -0.557025        -0.938670
 H         2.154120         0.293946         0.527458
 H        -2.661863        -0.932325        -0.566614
 H        -2.935472        -1.062979         1.690657
 H        -3.536586         1.846829        -0.104252
 H        -5.054706        -0.446206        -1.208147
 H        -5.642071         1.214584        -1.118348
 H        -1.949957         0.767514        -2.435691
 H        -2.900713         2.370429        -2.554791
