19
Iteration:  1050charge 0 multiplicity 1
 C         1.099514        -0.604826        -0.655920
 C        -0.358263        -0.374171        -0.350158
 C        -1.454113        -0.217374         0.111032
 C        -2.869562        -0.002007         0.417942
 O        -2.750133         1.014845         1.521320
 C        -3.802586         0.339825        -0.711851
 C        -3.656940        -0.290500        -2.115370
 O        -3.174488         1.044059        -2.649314
 C        -3.591002         1.674156        -1.484275
 H         1.581767         0.325539        -0.277104
 H         1.519458        -1.611158        -0.347000
 H         1.068392        -0.550555        -1.790141
 H        -3.301716        -0.896446         0.840183
 H        -3.615999         1.428364         1.482634
 H        -4.832528         0.218739        -0.351288
 H        -2.789562        -1.016313        -2.364081
 H        -4.679845        -0.567400        -2.553673
 H        -2.760672         2.211848        -0.976056
 H        -4.465166         2.403101        -1.663698
