19
Iteration:   452charge 0 multiplicity 1
 C         1.485617         0.161684         0.165934
 C         0.019202        -0.298921         0.175340
 C        -1.202146        -0.363204        -0.034810
 C        -2.640746        -0.084426        -0.045053
 O        -3.063410         0.498782         1.360046
 C        -3.091057         0.896447        -1.055048
 C        -4.611524         0.779880        -1.255360
 O        -4.404828         0.591007        -2.733095
 C        -2.927630         0.511531        -2.518434
 H         1.947612        -0.407035        -0.658885
 H         1.417932         1.141168        -0.155676
 H         2.127851        -0.098357         1.001140
 H        -3.237999        -0.988926        -0.130065
 H        -2.193672         0.735283         1.813699
 H        -2.536521         1.876187        -1.003074
 H        -4.956850        -0.159458        -0.773144
 H        -5.284363         1.600098        -1.117713
 H        -2.638611        -0.483039        -2.832813
 H        -2.255192         1.268711        -2.889328
