19
Iteration:  1654
 C         1.487198         0.038741         0.787666
 C         0.195046        -0.272357         0.264218
 C        -0.986891        -0.107219        -0.154227
 C        -2.438075        -0.150219        -0.341082
 O        -3.079544         0.092800         0.962533
 C        -2.922650         0.885793        -1.293525
 C        -4.436023         1.128368        -1.102642
 O        -4.753760         0.590346        -2.342149
 C        -3.378097         0.559279        -2.807963
 H         2.358674        -0.203057         0.000469
 H         1.680551         1.037026         1.084137
 H         1.683861        -0.628808         1.651016
 H        -2.726858        -1.317540        -0.504895
 H        -2.620605         0.783740         1.504734
 H        -2.261444         1.771789        -1.334286
 H        -4.981746         0.594562        -0.289587
 H        -4.544252         2.245497        -0.887547
 H        -3.123946        -0.373578        -3.374101
 H        -3.103705         1.317265        -3.536765
