19
Iteration:  4669
 C         1.412588         0.191025         0.018816
 C        -0.008478        -0.068178        -0.056614
 C        -1.188241        -0.310222        -0.067981
 C        -2.649461        -0.434343        -0.040282
 O        -3.078345        -0.516155         1.320874
 C        -3.262131         0.787846        -0.774206
 C        -4.675986         0.810774        -1.489624
 O        -4.134002         1.410264        -2.667635
 C        -2.816258         1.050940        -2.177787
 H         2.018215        -0.502619         0.618216
 H         1.779817         0.005848        -1.002313
 H         1.748218         1.214885         0.348526
 H        -2.875266        -1.472830        -0.533021
 H        -3.433408        -1.399419         1.511374
 H        -3.316590         1.670623        -0.025161
 H        -4.882583        -0.183135        -1.721085
 H        -5.550450         1.189775        -1.067571
 H        -2.330896         0.181369        -2.629364
 H        -2.210963         1.823683        -2.421464
