19
Iteration:  1094
 C         0.899846        -0.829734        -1.018129
 C        -0.308676        -0.369555        -0.268873
 C        -1.334684         0.009192         0.235560
 C        -2.836135         0.054064         0.426467
 O        -3.146671         1.150094         1.413995
 C        -3.753798         0.259436        -0.733081
 C        -3.182607        -0.290231        -2.014852
 O        -3.255304         1.070296        -2.648677
 C        -3.559141         1.649639        -1.264033
 H         1.758443        -0.137213        -1.080922
 H         1.062386        -1.808031        -0.521796
 H         0.592378        -0.996997        -2.087068
 H        -3.065544        -0.920336         0.878621
 H        -3.900610         0.986034         1.969374
 H        -4.744844        -0.103815        -0.445176
 H        -2.091978        -0.693919        -1.934341
 H        -3.824048        -0.928759        -2.688654
 H        -2.649989         2.169959        -0.912732
 H        -4.481129         2.319414        -1.291221
