19
Iteration:  4413
 C         1.557272         0.004694         0.225255
 C         0.093933        -0.131689        -0.048146
 C        -1.124722        -0.303406        -0.110660
 C        -2.569298        -0.308002        -0.128934
 O        -3.113619        -0.471151         1.143617
 C        -3.252346         0.987139        -0.772736
 C        -4.664670         0.687866        -1.315139
 O        -4.330364         1.069093        -2.708216
 C        -2.946257         1.377290        -2.231942
 H         2.076519         0.313343        -0.710260
 H         1.749918         0.808430         0.970557
 H         1.919037        -0.956829         0.574464
 H        -2.863154        -1.080319        -0.712519
 H        -3.158606        -1.405632         1.381556
 H        -3.189604         1.872809        -0.055773
 H        -5.098619        -0.355395        -1.090473
 H        -5.312108         1.421566        -0.927488
 H        -2.269269         0.796615        -2.804256
 H        -2.590082         2.406169        -2.537135
