19
Iteration:  2959charge 0 multiplicity 1
 C         1.454713         0.066884         0.608100
 C         0.048492        -0.067274         0.223122
 C        -1.031976        -0.164871        -0.313526
 C        -2.447968        -0.267537        -0.289704
 O        -3.013909        -0.433834         1.021576
 C        -2.959365         0.964325        -1.151079
 C        -4.448896         1.243051        -1.078751
 O        -4.644336         0.997544        -2.492987
 C        -3.277250         0.520321        -2.562364
 H         1.832385         1.172354         0.731868
 H         1.607766        -0.349526         1.596538
 H         2.006907        -0.617023         0.019841
 H        -2.867045        -1.138950        -0.776460
 H        -2.824782         0.299148         1.600983
 H        -2.311906         1.894490        -1.177649
 H        -4.996988         0.552646        -0.385031
 H        -4.650938         2.306818        -0.718922
 H        -3.364449        -0.563093        -2.844630
 H        -2.671434         1.033576        -3.269541
