19
Iteration:  4000charge 0 multiplicity 1
 C         1.392153        -0.294645        -0.146821
 C        -0.020580        -0.210556         0.003795
 C        -1.193133         0.083790         0.010327
 C        -2.583347        -0.142653         0.036479
 O        -3.164817        -0.124251         1.357838
 C        -3.379468         0.957266        -0.737791
 C        -4.632715         0.539854        -1.497845
 O        -3.988211         0.786634        -2.828962
 C        -2.878903         1.363297        -2.125613
 H         1.730673        -1.418362         0.032190
 H         1.627005         0.112479        -1.217499
 H         1.908311         0.155376         0.653616
 H        -2.661697        -1.115110        -0.471808
 H        -2.737498        -0.831293         1.885264
 H        -3.350675         1.757008         0.115766
 H        -4.972737        -0.432804        -1.390981
 H        -5.615670         1.126282        -1.337418
 H        -1.797952         1.115501        -2.465347
 H        -2.837984         2.537760        -2.303177
