19
Iteration:  4937charge 0 multiplicity 1
 C         1.452563        -0.190294         0.587354
 C         0.202258        -0.250271        -0.037757
 C        -1.002637        -0.155729        -0.171155
 C        -2.435166        -0.126017        -0.388574
 O        -3.121946        -0.482593         0.942742
 C        -3.106508         1.170796        -0.945915
 C        -4.597710         0.841693        -1.066022
 O        -4.525964         0.758243        -2.514726
 C        -3.164594         1.389596        -2.465135
 H         2.007878         0.795521         0.566775
 H         1.375323        -0.398021         1.726922
 H         2.107264        -0.979475         0.329557
 H        -2.601237        -0.853919        -1.153556
 H        -2.479776        -0.993199         1.462651
 H        -2.671876         2.024863        -0.440182
 H        -5.153092        -0.066915        -0.396741
 H        -5.185970         1.684353        -0.702969
 H        -2.504834         0.968459        -3.271747
 H        -3.422809         2.395049        -2.664788
