19
Iteration:   767
 C         1.427037         0.179328        -0.401888
 C         0.063786        -0.102776         0.148743
 C        -1.168575        -0.185145         0.321464
 C        -2.726011        -0.167052         0.159122
 O        -3.381285         0.043987         1.463213
 C        -3.197512         0.950797        -0.870477
 C        -4.595249         0.897232        -1.457069
 O        -4.092194         0.744885        -2.834445
 C        -2.703910         0.542090        -2.345570
 H         2.144183         0.012034         0.286017
 H         1.782552        -0.569060        -1.194495
 H         1.553392         1.184910        -0.818520
 H        -3.013979        -1.148680        -0.176732
 H        -2.955693        -0.694495         1.880456
 H        -2.927482         1.880529        -0.434007
 H        -5.247403         0.080199        -1.095915
 H        -5.179845         1.828750        -1.385130
 H        -2.513527        -0.560842        -2.409201
 H        -1.977319         1.152991        -2.878041
