19
Iteration:  4391charge 0 multiplicity 1
 C         1.477580        -0.020143         0.307081
 C         0.085916        -0.134825        -0.019841
 C        -1.101020        -0.107549        -0.135360
 C        -2.547956        -0.329287        -0.266328
 O        -3.117728        -0.450103         1.078994
 C        -3.177528         0.914826        -0.850165
 C        -4.706687         0.708277        -1.230367
 O        -4.371223         1.187937        -2.571455
 C        -2.927061         1.176368        -2.291502
 H         2.003654         0.470740        -0.531742
 H         1.621450         0.589903         1.221779
 H         1.836843        -1.051575         0.484241
 H        -2.790023        -1.186225        -0.831651
 H        -2.678493        -1.271437         1.411388
 H        -2.920092         1.768290        -0.120103
 H        -4.910813        -0.390089        -1.160612
 H        -5.467645         1.245865        -0.746343
 H        -2.358570         0.550177        -2.889966
 H        -2.469654         2.140326        -2.651966
