19
Iteration:  2697charge 0 multiplicity 1
 C         1.494103        -0.107596         0.060787
 C         0.061022        -0.228417        -0.105213
 C        -1.151373        -0.211337         0.019699
 C        -2.560119        -0.141574        -0.002189
 O        -3.240683        -0.102473         1.251531
 C        -3.179452         0.947055        -0.836121
 C        -4.629403         0.562941        -1.329500
 O        -4.207113         0.751240        -2.739807
 C        -2.914034         1.277713        -2.265510
 H         1.753704        -0.894431         0.812286
 H         2.044068        -0.427633        -0.808928
 H         1.884641         0.932879         0.194597
 H        -2.981144        -0.982513        -0.464285
 H        -3.202316         0.753708         1.697754
 H        -3.156797         1.865104        -0.248789
 H        -4.920537        -0.414814        -0.970261
 H        -5.339785         1.373517        -1.176790
 H        -2.093321         0.949921        -2.813692
 H        -2.983651         2.421480        -2.442145
