19
Iteration:  3523charge 0 multiplicity 1
 C         1.597786        -0.267097         0.633344
 C         0.156861        -0.149335         0.509240
 C        -0.966348         0.006777        -0.034421
 C        -2.409548        -0.049083        -0.420786
 O        -3.041273        -0.261353         0.900545
 C        -2.984618         1.106961        -1.319246
 C        -4.537519         1.136059        -1.043198
 O        -4.794157         0.690641        -2.417471
 C        -3.331530         0.712408        -2.748560
 H         2.042893         0.112955         1.723875
 H         1.880176        -1.334456         0.582908
 H         1.992493         0.511905         0.040872
 H        -2.642753        -0.998850        -1.165226
 H        -2.627589         0.392855         1.455822
 H        -2.289304         1.883814        -1.335545
 H        -4.863759         0.370363        -0.269393
 H        -4.867842         2.163902        -0.708217
 H        -3.015813        -0.276522        -2.967667
 H        -3.268735         1.493649        -3.533068
