19
Iteration:    49charge 0 multiplicity 1
 C         1.503988        -0.394967         0.344200
 C         0.146154        -0.053812         0.008589
 C        -1.050012         0.184816        -0.113766
 C        -2.465964         0.077386        -0.015275
 O        -2.884467         0.270364         1.379441
 C        -3.381455         0.966408        -0.991106
 C        -4.865129         0.391404        -1.379736
 O        -4.441907         0.706085        -2.830580
 C        -2.979398         0.780931        -2.428662
 H         1.597028        -0.225169         1.520157
 H         1.713188        -1.451574         0.316907
 H         2.251769         0.263146        -0.126116
 H        -2.677202        -1.015675        -0.234660
 H        -2.394941         1.091744         1.685589
 H        -3.436002         1.983483        -0.560611
 H        -4.817782        -0.748021        -1.289371
 H        -5.747632         0.949071        -1.059145
 H        -2.483431        -0.248738        -2.612413
 H        -2.394636         1.524648        -3.047444
