19
Iteration:  1581charge 0 multiplicity 1
 C         1.291718         0.392995         0.348754
 C        -0.037691        -0.264906         0.060526
 C        -1.233680        -0.335874        -0.167919
 C        -2.744254        -0.306284        -0.147889
 O        -3.109711        -0.154643         1.225695
 C        -2.849204         0.928197        -1.075886
 C        -4.286688         1.406790        -1.239841
 O        -4.436434         0.685654        -2.477725
 C        -3.026008         0.366691        -2.546090
 H         1.685272         0.605425        -0.641363
 H         1.171981         1.517057         0.758188
 H         1.998686        -0.193699         0.986064
 H        -3.143635        -1.180435        -0.520624
 H        -2.300652         0.029707         1.780084
 H        -2.071293         1.692328        -0.835325
 H        -5.000127         1.257663        -0.415545
 H        -4.420021         2.471948        -1.348866
 H        -2.806333        -0.709819        -2.607392
 H        -2.469829         0.897775        -3.427966
