19
Iteration:  2843charge 0 multiplicity 1
 C         1.497171         0.281569         0.499672
 C         0.096670        -0.136494         0.299673
 C        -0.997670        -0.503326        -0.107228
 C        -2.454547        -0.420023        -0.327789
 O        -3.128556        -0.172684         0.979446
 C        -2.968470         0.828409        -1.166604
 C        -4.428294         1.057629        -1.049291
 O        -4.581404         1.287037        -2.477632
 C        -3.337342         0.563186        -2.612207
 H         1.506817         1.049000         1.244881
 H         2.270613        -0.500150         0.785636
 H         1.896089         0.706618        -0.527810
 H        -2.837752        -1.342692        -0.745254
 H        -2.897125        -0.898393         1.582875
 H        -2.346994         1.647328        -1.000732
 H        -4.962900         0.127879        -0.651328
 H        -4.871941         1.922035        -0.569281
 H        -3.513626        -0.485740        -2.837079
 H        -2.494116         1.059045        -3.276602
