19
Iteration:  4757charge 0 multiplicity 1
 C         1.516568         0.131112         0.326566
 C         0.086858        -0.170718         0.160341
 C        -1.089157        -0.285376        -0.085228
 C        -2.491710        -0.449461        -0.258904
 O        -3.211866        -0.498443         1.027704
 C        -3.093068         0.820228        -0.992584
 C        -4.548473         0.902168        -1.119791
 O        -4.478020         1.352003        -2.538399
 C        -3.025510         1.022549        -2.488073
 H         1.703064         0.251674         1.383101
 H         2.174574        -0.559951        -0.161004
 H         1.647535         1.156082        -0.155141
 H        -2.727115        -1.218509        -0.851396
 H        -2.549334        -0.850093         1.668032
 H        -2.695414         1.668803        -0.325725
 H        -5.242941        -0.107231        -1.086659
 H        -5.096135         1.555196        -0.503402
 H        -2.652208         0.098211        -3.007451
 H        -2.511850         1.860925        -2.829170
