19
Iteration:   695charge 0 multiplicity 1
 C         1.230821         0.359093         0.283222
 C        -0.030820        -0.122100        -0.091161
 C        -1.206601        -0.564240        -0.164313
 C        -2.587594        -0.178252        -0.073146
 O        -3.118351         0.026706         1.315662
 C        -2.954300         0.987042        -1.030164
 C        -4.354111         1.247862        -1.317173
 O        -4.391557         0.382812        -2.412436
 C        -2.923241         0.543245        -2.579373
 H         1.584902        -0.391423         1.189605
 H         2.018138         0.110860        -0.363242
 H         1.299675         1.451193         0.524996
 H        -3.397018        -0.889874        -0.401984
 H        -2.948625         0.950939         1.539855
 H        -2.417439         1.923140        -0.693146
 H        -5.100471         0.985420        -0.563041
 H        -4.535897         2.310480        -1.519794
 H        -2.558793        -0.472918        -2.716801
 H        -2.590142         1.325264        -3.305542
