19
Iteration:  2593charge 0 multiplicity 1
 C         1.411420        -0.216317        -0.274316
 C        -0.040908         0.089111        -0.166465
 C        -1.270717         0.003308         0.007235
 C        -2.746931        -0.109856         0.116236
 O        -3.212038        -0.097122         1.442434
 C        -3.418237         1.052146        -0.671229
 C        -4.610267         0.606267        -1.529237
 O        -3.816805         0.491675        -2.785535
 C        -2.747127         1.239258        -2.049422
 H         1.523466        -1.272250        -0.497174
 H         1.780007         0.282910        -1.210697
 H         1.970941        -0.103807         0.572577
 H        -3.176790        -0.894405        -0.401174
 H        -2.928623        -0.889121         1.975293
 H        -3.487940         2.013131        -0.136050
 H        -5.065041        -0.402499        -1.301915
 H        -5.424999         1.335934        -1.542650
 H        -1.838600         0.531859        -2.240968
 H        -2.521253         2.276501        -2.441266
