19
Iteration:  3649
 C         1.528366        -0.000893         0.556098
 C         0.092286        -0.288236         0.182316
 C        -1.054933        -0.428831        -0.131767
 C        -2.531384        -0.194018        -0.281723
 O        -3.077739        -0.086220         1.026293
 C        -2.986232         1.083853        -1.073516
 C        -4.542866         1.137682        -1.133897
 O        -4.573211         0.589894        -2.530368
 C        -3.193759         0.957681        -2.584252
 H         1.613739         1.059203         0.721853
 H         1.775376        -0.454874         1.531628
 H         2.189388        -0.377419        -0.378139
 H        -3.114672        -1.035632        -0.907258
 H        -2.365683        -0.192770         1.684789
 H        -2.530913         1.993324        -0.567169
 H        -5.138828         0.387959        -0.611423
 H        -4.934472         2.188059        -1.110475
 H        -2.518104         0.394055        -3.226709
 H        -3.019043         1.911114        -3.002969
