19
Iteration:   862charge 0 multiplicity 1
 C         1.265605        -0.244939        -0.448621
 C        -0.052898        -0.033010        -0.031269
 C        -1.271253         0.079400         0.237219
 C        -2.690964        -0.028692         0.349019
 O        -3.091557         0.232566         1.614722
 C        -3.399865         0.712772        -0.777657
 C        -4.468902         0.111146        -1.798475
 O        -3.961381         0.895464        -2.835202
 C        -2.699961         1.204553        -2.123439
 H         2.173283        -0.027211         0.237424
 H         1.379409        -1.340329        -0.654353
 H         1.527728         0.263537        -1.401017
 H        -2.881552        -1.177582         0.141865
 H        -4.030728         0.033039         1.652019
 H        -3.844194         1.688291        -0.365221
 H        -4.314621        -1.022241        -1.916294
 H        -5.548764         0.229566        -1.793459
 H        -1.911286         0.553674        -2.518534
 H        -2.581209         2.314649        -2.242730
