19
Iteration:  3572charge 0 multiplicity 1
 C         1.600798        -0.342996         0.843927
 C         0.293456         0.016510         0.085231
 C        -0.906271         0.040748        -0.148895
 C        -2.403837        -0.098858        -0.371133
 O        -3.117485        -0.347300         0.893422
 C        -3.064719         1.130153        -1.186304
 C        -4.593866         1.284383        -1.101644
 O        -4.735851         0.601837        -2.380825
 C        -3.350093         0.705270        -2.669425
 H         1.843873         0.168990         1.719923
 H         1.365999        -1.356534         1.214145
 H         2.600131        -0.074969         0.223530
 H        -2.577653        -1.046384        -0.991728
 H        -2.838118         0.290712         1.611387
 H        -2.426272         2.049682        -0.911204
 H        -4.969269         0.748736        -0.240377
 H        -4.950711         2.324134        -1.296527
 H        -2.886872        -0.325262        -2.998249
 H        -3.137512         1.472174        -3.490234
