19
Iteration:  3529
 C         1.586785        -0.270249         0.674599
 C         0.124309        -0.172253         0.479706
 C        -0.944239         0.084382        -0.019585
 C        -2.406936        -0.073517        -0.434940
 O        -3.014420        -0.284007         0.896283
 C        -2.981240         1.081297        -1.309366
 C        -4.531491         1.159740        -1.039112
 O        -4.793395         0.671405        -2.401284
 C        -3.359769         0.739952        -2.730500
 H         1.823355         0.042661         1.610660
 H         1.865943        -1.322208         0.573619
 H         1.959825         0.417483        -0.172522
 H        -2.533176        -0.923913        -0.982353
 H        -2.666799         0.482571         1.415718
 H        -2.307104         2.030797        -1.291724
 H        -4.899513         0.364037        -0.381586
 H        -4.763824         2.194518        -0.838529
 H        -2.997178        -0.261144        -3.186597
 H        -3.131296         1.332209        -3.641028
