19
Iteration:  4434charge 0 multiplicity 1
 C         1.617966         0.017083         0.093242
 C         0.087178        -0.157289         0.016515
 C        -1.109122        -0.306353        -0.143868
 C        -2.571152        -0.302479        -0.184087
 O        -3.211879        -0.468754         1.240637
 C        -3.329111         0.952139        -0.729285
 C        -4.715085         0.773742        -1.376080
 O        -4.163681         0.941422        -2.693586
 C        -2.957468         1.463194        -2.163991
 H         2.065475         0.153650        -0.899880
 H         1.803239         0.985513         0.552337
 H         2.056653        -0.881155         0.608119
 H        -2.868531        -1.118866        -0.747617
 H        -3.240779        -1.440426         1.450066
 H        -3.112973         1.792352         0.028796
 H        -5.144293        -0.376932        -1.367843
 H        -5.555529         1.509664        -1.149631
 H        -2.108982         1.067308        -2.747504
 H        -2.873817         2.615010        -2.156230
