19
Iteration:  4068charge 0 multiplicity 1
 C         1.586130        -0.303669         0.141452
 C         0.090523        -0.138720         0.061785
 C        -1.111130         0.095010        -0.044662
 C        -2.524065        -0.125591        -0.168004
 O        -3.257235        -0.356810         1.100340
 C        -3.273440         1.056869        -0.836875
 C        -4.723699         0.792792        -1.226668
 O        -4.243828         0.725358        -2.647265
 C        -2.918621         1.253637        -2.305137
 H         1.769235        -0.951348         1.008485
 H         1.875685        -0.607837        -0.876286
 H         2.036384         0.625094         0.465790
 H        -2.704371        -0.885582        -0.811642
 H        -2.612883        -0.938014         1.499020
 H        -3.190910         1.932313        -0.052254
 H        -5.197393        -0.172149        -0.987450
 H        -5.454982         1.605312        -0.982001
 H        -1.995246         0.753412        -2.771973
 H        -2.734186         2.330116        -2.733528
