19
Iteration:  3510charge 0 multiplicity 1
 C         1.631277        -0.211197         0.647485
 C         0.154969        -0.082917         0.461656
 C        -0.949402        -0.172232        -0.060779
 C        -2.366272        -0.056291        -0.361846
 O        -3.120242        -0.189664         0.862177
 C        -2.977432         1.105906        -1.252115
 C        -4.508628         1.130648        -1.060429
 O        -4.784878         0.728160        -2.439087
 C        -3.374773         0.678581        -2.720766
 H         1.928325        -0.110104         1.773673
 H         1.973231        -1.169000         0.263850
 H         2.145539         0.411578         0.006278
 H        -2.638866        -1.047458        -0.839351
 H        -2.548829         0.146171         1.608942
 H        -2.552244         2.104974        -1.074661
 H        -4.785652         0.293955        -0.318647
 H        -5.108259         2.039874        -0.917486
 H        -2.986191        -0.235953        -3.146090
 H        -2.989836         1.393630        -3.495530
