19
Iteration:  1461charge 0 multiplicity 1
 C         1.446875        -0.136009        -0.435036
 C         0.033422        -0.114298         0.005037
 C        -1.159637        -0.008746         0.354680
 C        -2.617608        -0.098272         0.208174
 O        -3.475213        -0.008554         1.428589
 C        -3.269740         0.870712        -0.824597
 C        -4.549420         0.413079        -1.536424
 O        -4.065312         1.033983        -2.828511
 C        -2.689541         0.921711        -2.229305
 H         1.618718         0.315161        -1.392085
 H         2.052238         0.485934         0.333276
 H         1.690847        -1.192046        -0.250196
 H        -2.823637        -1.089640        -0.249765
 H        -3.083917         0.482693         2.162330
 H        -3.288363         1.896932        -0.353239
 H        -4.618202        -0.740732        -1.555870
 H        -5.535598         0.779343        -1.295765
 H        -2.308749        -0.119139        -2.356160
 H        -2.103681         1.766064        -2.672127
