19
Iteration:  3902charge 0 multiplicity 1
 C         1.305944        -0.042592        -0.393513
 C        -0.144216        -0.151770        -0.201682
 C        -1.302688        -0.338251         0.032705
 C        -2.802498        -0.186035         0.235900
 O        -3.152317         0.073578         1.623909
 C        -3.443708         0.859767        -0.704298
 C        -4.548822         0.457504        -1.731512
 O        -3.753776         0.951740        -2.838096
 C        -2.652202         1.210469        -1.985734
 H         1.636423        -0.770439        -1.098956
 H         1.501434         0.986494        -0.640339
 H         1.784615        -0.447204         0.392949
 H        -3.326643        -1.198364        -0.055867
 H        -2.609756        -0.554205         2.105302
 H        -3.871520         1.721291        -0.072791
 H        -4.842973        -0.630546        -1.699393
 H        -5.395163         1.156811        -1.686073
 H        -1.798697         0.550946        -2.317201
 H        -2.223807         2.237320        -2.041895
