19
Iteration:  3538charge 0 multiplicity 1
 C         1.517496        -0.272597         0.703934
 C         0.116881        -0.188761         0.418317
 C        -0.973283         0.156272        -0.050643
 C        -2.317474        -0.076596        -0.387448
 O        -3.001795        -0.294134         0.858370
 C        -2.976371         1.047700        -1.255687
 C        -4.481800         1.184209        -1.073962
 O        -4.782921         0.667781        -2.395615
 C        -3.411677         0.709117        -2.761094
 H         1.817161         0.112513         1.627967
 H         1.941856        -1.308183         0.572952
 H         2.226873         0.151408        -0.177098
 H        -2.407833        -1.121732        -0.793412
 H        -2.796556         0.467575         1.454088
 H        -2.583420         2.058549        -0.967073
 H        -4.940563         0.661151        -0.270605
 H        -4.982582         2.172897        -1.005449
 H        -3.039843        -0.320524        -3.107605
 H        -3.088909         1.582578        -3.389961
