19
Iteration:    33
 C         1.517451        -0.268162         0.343585
 C         0.118421        -0.139591        -0.076009
 C        -1.084616         0.125337        -0.088276
 C        -2.567628         0.175594         0.028022
 O        -2.976367         0.172178         1.357274
 C        -3.312006         0.979912        -0.954756
 C        -4.649040         0.538134        -1.392630
 O        -4.398254         0.627606        -2.753342
 C        -3.040658         0.682339        -2.460455
 H         1.681585        -0.218631         1.382842
 H         1.898174        -1.320647         0.051152
 H         2.109630         0.474952        -0.204520
 H        -2.920372        -0.806165        -0.263724
 H        -2.543776         0.908117         1.818919
 H        -3.318465         2.067567        -0.879220
 H        -4.940970        -0.466301        -1.118337
 H        -5.424293         1.306198        -1.173152
 H        -2.536261        -0.211674        -2.710950
 H        -2.507765         1.508858        -2.889195
