19
Iteration:  2416charge 0 multiplicity 1
 C         1.389331         0.224021         0.254592
 C        -0.018186        -0.104829         0.141493
 C        -1.176478        -0.237621        -0.226894
 C        -2.604481        -0.349800        -0.010660
 O        -2.934392        -0.057113         1.345737
 C        -3.144095         0.739767        -0.992832
 C        -4.577285         1.016903        -1.300652
 O        -4.297708         1.122183        -2.719655
 C        -3.058972         0.458247        -2.498468
 H         1.710395         0.486480        -0.724075
 H         1.357444         1.042566         1.116871
 H         2.088691        -0.464971         0.762924
 H        -3.074713        -1.414541        -0.197583
 H        -2.178177        -0.491097         1.788289
 H        -2.716518         1.660081        -0.608898
 H        -5.311222         0.232273        -1.141597
 H        -5.132910         1.906239        -1.031930
 H        -3.314610        -0.551671        -2.856156
 H        -2.142541         0.759341        -3.053588
