19
Iteration:  4760
 C         1.503875         0.123417         0.331627
 C         0.090653        -0.187854         0.172219
 C        -1.102056        -0.254333        -0.079356
 C        -2.483105        -0.442998        -0.271735
 O        -3.210763        -0.511833         1.018853
 C        -3.104295         0.829850        -0.988244
 C        -4.521598         0.907178        -1.114108
 O        -4.503232         1.331678        -2.520832
 C        -3.022176         1.037388        -2.494622
 H         1.773432         0.300441         1.368892
 H         2.161305        -0.612827        -0.114684
 H         1.641379         1.162058        -0.160834
 H        -2.764910        -1.321264        -0.913342
 H        -2.511626        -0.766962         1.665757
 H        -2.605698         1.615894        -0.439902
 H        -5.185184        -0.081629        -1.131680
 H        -5.138571         1.624181        -0.465010
 H        -2.566223         0.151090        -2.963213
 H        -2.440029         1.817045        -3.013497
