19
Iteration:   415
 C         1.372225         0.150567        -0.234778
 C        -0.020767        -0.167789         0.107013
 C        -1.228218        -0.228818         0.250084
 C        -2.717676        -0.175938         0.148957
 O        -3.121819         0.383583         1.515955
 C        -3.093794         0.840822        -0.965951
 C        -4.572345         1.007525        -1.484886
 O        -4.247989         0.519815        -2.842473
 C        -2.805968         0.436379        -2.386438
 H         1.541492        -0.204957        -1.247738
 H         1.613944         1.317751        -0.280459
 H         2.193172        -0.123868         0.451437
 H        -3.154564        -1.170432        -0.020541
 H        -2.631672        -0.177141         2.138734
 H        -2.674224         1.738608        -0.637727
 H        -5.252770         0.329520        -0.945160
 H        -5.004815         2.054146        -1.415844
 H        -2.385873        -0.598813        -2.571129
 H        -2.246037         1.183159        -2.973099
