19
Iteration:   957
 C         1.191155        -0.194506        -0.146804
 C        -0.289355        -0.214972        -0.356841
 C        -1.448261        -0.353668        -0.226909
 C        -2.789577        -0.066951         0.264166
 O        -2.559170         0.683179         1.536919
 C        -3.778325         0.654917        -0.699366
 C        -4.353904        -0.110587        -1.980716
 O        -3.491422         0.732497        -2.844685
 C        -3.075300         1.611554        -1.658998
 H         1.635773         0.401212         0.732241
 H         1.435951        -1.234800         0.028127
 H         1.712935        -0.021941        -1.102735
 H        -3.291973        -1.050693         0.452558
 H        -3.200175         0.340867         2.225086
 H        -4.529529         1.027851         0.016198
 H        -4.145288        -1.155492        -2.126542
 H        -5.480876         0.091558        -2.026127
 H        -1.986950         1.578374        -1.432325
 H        -3.491273         2.637957        -1.712141
