19
Iteration:   229charge 0 multiplicity 1
 C         1.349909        -0.182865        -0.219439
 C        -0.144700        -0.220924        -0.234906
 C        -1.316991         0.087442        -0.009500
 C        -2.747030         0.030052         0.271078
 O        -2.952452         0.617004         1.588080
 C        -3.515473         0.809761        -0.784239
 C        -4.677145         0.236408        -1.648017
 O        -3.915996         0.584758        -2.869346
 C        -2.633738         0.909500        -2.105318
 H         1.767504         0.664521        -0.587217
 H         1.750795        -0.436518         0.845580
 H         1.761462        -1.071244        -0.692760
 H        -3.040388        -1.056627         0.152654
 H        -2.652612         0.028410         2.264187
 H        -3.614674         1.854518        -0.482504
 H        -4.755538        -0.886765        -1.589882
 H        -5.642755         0.842124        -1.478514
 H        -1.859160         0.088402        -2.292916
 H        -2.302654         1.889371        -2.400140
