19
Iteration:  2341
 C         1.475834         0.156911         0.526915
 C         0.149698        -0.275730         0.185409
 C        -1.031989        -0.251687        -0.082369
 C        -2.463018        -0.271100        -0.217199
 O        -3.250073         0.148672         0.971288
 C        -2.940298         0.783922        -1.232852
 C        -4.409777         1.021014        -1.029948
 O        -4.622896         0.882341        -2.425914
 C        -3.195714         0.565300        -2.685585
 H         1.732469         1.116503        -0.004980
 H         1.532534         0.258837         1.701408
 H         2.182031        -0.642371         0.305854
 H        -2.734275        -1.206863        -0.586510
 H        -2.810118        -0.357582         1.693210
 H        -2.306120         1.658876        -1.019404
 H        -4.913765         0.216689        -0.502623
 H        -4.641127         2.010962        -0.558730
 H        -2.973947        -0.330304        -3.373119
 H        -2.842873         1.195735        -3.485023
