19
Iteration:   422charge 0 multiplicity 1
 C         1.373669         0.180959        -0.155019
 C        -0.030054        -0.222048         0.136658
 C        -1.250778        -0.228766         0.234544
 C        -2.646363        -0.199515         0.151484
 O        -3.071251         0.394152         1.459211
 C        -3.115162         0.903027        -0.935057
 C        -4.572402         0.936279        -1.421315
 O        -4.256440         0.519218        -2.842061
 C        -2.860779         0.489955        -2.493979
 H         1.511051        -0.308982        -1.201280
 H         1.383815         1.221381        -0.302297
 H         2.187096        -0.178126         0.493061
 H        -3.209157        -1.157297        -0.016569
 H        -2.520266        -0.008480         2.115257
 H        -2.590125         1.906380        -0.572678
 H        -5.343651         0.348279        -0.899207
 H        -4.967206         1.939601        -1.526616
 H        -2.648141        -0.570801        -2.594222
 H        -2.052363         1.031820        -3.095574
