19
Iteration:  3061charge 0 multiplicity 1
 C         1.548410        -0.279899         0.234594
 C         0.118646        -0.025882         0.290364
 C        -1.045460        -0.058966        -0.075211
 C        -2.516163        -0.020754        -0.226439
 O        -3.189337        -0.094312         1.062741
 C        -3.167698         1.110885        -0.966219
 C        -4.642860         0.690860        -1.198386
 O        -4.408696         0.678839        -2.598517
 C        -3.040752         1.023369        -2.464919
 H         2.113385         0.234526        -0.651278
 H         1.990736        -0.041359         1.248351
 H         1.669012        -1.437979         0.083872
 H        -2.870559        -0.961691        -0.739398
 H        -2.568738        -0.468828         1.745343
 H        -3.016110         1.988291        -0.424220
 H        -4.917422        -0.261315        -0.666059
 H        -5.404330         1.481466        -0.947779
 H        -2.352602         0.139622        -2.688572
 H        -2.843130         1.862842        -3.044148
