19
Iteration:  3214
 C         1.380429        -0.056966        -0.541919
 C        -0.084906        -0.242959        -0.198074
 C        -1.234425        -0.176286         0.216130
 C        -2.798692        -0.134400         0.279354
 O        -3.378687        -0.003138         1.602437
 C        -3.406474         0.977300        -0.695458
 C        -4.563117         0.615346        -1.682330
 O        -3.746013         0.670467        -2.829647
 C        -2.635470         1.168473        -2.058564
 H         1.692647        -0.794307        -1.399134
 H         1.600275         0.922015        -0.974242
 H         1.932838        -0.313731         0.282828
 H        -2.966465        -1.267702        -0.210046
 H        -2.712030         0.152120         2.258177
 H        -3.605972         1.820622        -0.093613
 H        -5.200461        -0.251170        -1.521030
 H        -5.296485         1.428845        -1.685322
 H        -1.541099         0.676538        -2.179623
 H        -2.505108         2.292989        -2.187169
