19
Iteration:  2964
 C         1.483297         0.044330         0.598217
 C         0.083026        -0.049038         0.227042
 C        -1.024785        -0.172237        -0.258561
 C        -2.460634        -0.231069        -0.269272
 O        -3.021406        -0.436335         0.980819
 C        -2.990593         0.954351        -1.164440
 C        -4.461642         1.227137        -1.078917
 O        -4.658956         0.994527        -2.508087
 C        -3.258182         0.534743        -2.538826
 H         1.804447         1.023049         0.605987
 H         1.566855        -0.361470         1.644085
 H         2.166618        -0.643518        -0.021199
 H        -2.840562        -1.166732        -0.815008
 H        -2.830666         0.372493         1.541151
 H        -2.369801         1.817160        -1.144130
 H        -5.030022         0.659792        -0.338866
 H        -4.752173         2.218409        -0.794434
 H        -3.301839        -0.542432        -2.636595
 H        -2.692360         1.142563        -3.324021
