19
Iteration:  4204charge 0 multiplicity 1
 C         1.444828         0.174154         0.629724
 C         0.134219        -0.153969         0.221756
 C        -0.982111        -0.433407        -0.287156
 C        -2.451742        -0.435847        -0.406302
 O        -3.084472        -0.543029         0.870047
 C        -2.975038         0.923195        -1.062086
 C        -4.534778         1.353542        -0.949303
 O        -4.647591         1.104555        -2.430584
 C        -3.225072         0.866204        -2.566488
 H         1.462325         0.957903         1.378478
 H         2.019935        -0.663477         0.946359
 H         2.071702         0.585147        -0.157070
 H        -2.635170        -1.291047        -1.017452
 H        -2.769484        -1.272256         1.465106
 H        -2.436895         1.809902        -0.647234
 H        -5.085429         0.595422        -0.273943
 H        -4.876471         2.350661        -0.796772
 H        -2.950966        -0.061426        -3.138282
 H        -2.732868         1.626502        -3.287510
