19
Iteration:  3756
 C         1.483936        -0.166557        -0.151584
 C         0.046409        -0.025537         0.036622
 C        -1.189269         0.018371         0.169964
 C        -2.683762        -0.162667         0.129361
 O        -3.272784        -0.207294         1.395871
 C        -3.228350         0.876291        -0.836598
 C        -4.694595         0.764638        -1.470592
 O        -4.095643         1.038844        -2.797817
 C        -2.787094         0.807375        -2.353693
 H         1.806471         0.509907        -1.118824
 H         2.000353         0.200678         0.787243
 H         1.808869        -1.146823        -0.510113
 H        -2.875015        -1.152219        -0.333049
 H        -2.643506        -0.668796         2.018916
 H        -3.060346         1.849566        -0.399490
 H        -5.288010        -0.284380        -1.363670
 H        -5.364845         1.708663        -1.420766
 H        -2.439548        -0.266975        -2.479490
 H        -2.132348         1.769748        -2.551233
