19
Iteration:  3604
 C         1.477792        -0.194408         0.742856
 C         0.090100        -0.065298         0.180826
 C        -1.017402        -0.104214        -0.239780
 C        -2.445478        -0.073929        -0.402211
 O        -3.039934        -0.273476         0.909067
 C        -3.012424         1.126298        -1.136243
 C        -4.525068         1.196731        -1.062014
 O        -4.636261         0.572482        -2.384343
 C        -3.236964         0.767383        -2.595779
 H         1.642576         0.602408         1.439882
 H         1.495712        -1.194809         1.278591
 H         2.145096        -0.432888        -0.213126
 H        -2.736604        -1.033159        -1.083433
 H        -2.477256         0.165425         1.561267
 H        -2.327230         2.002600        -0.982516
 H        -4.840068         0.710290        -0.169364
 H        -4.882482         2.286971        -1.130008
 H        -2.773721        -0.097406        -3.114298
 H        -3.115857         1.520793        -3.366570
