19
Iteration:  3398
 C         1.392328         0.104740         0.145618
 C        -0.026269        -0.278451         0.085604
 C        -1.224815        -0.311404        -0.180482
 C        -2.663543        -0.304654         0.042101
 O        -3.051195         0.042505         1.347579
 C        -3.127337         0.795115        -0.924064
 C        -4.644810         0.954825        -1.346531
 O        -4.235552         1.021940        -2.762555
 C        -2.870077         0.711216        -2.389505
 H         2.018986        -0.387856         1.000279
 H         1.803838        -0.123505        -0.862802
 H         1.511207         1.222418         0.292032
 H        -3.082790        -1.348343        -0.384145
 H        -2.342583        -0.374943         1.871555
 H        -2.771586         1.781625        -0.399919
 H        -5.368618         0.123051        -1.033551
 H        -5.195945         1.857326        -1.028795
 H        -2.474032        -0.249196        -2.765325
 H        -2.250736         1.571343        -2.771715
