19
Iteration:  2853
 C         1.392519         0.329120         0.551096
 C         0.080862        -0.241683         0.287631
 C        -1.036017        -0.458180        -0.136437
 C        -2.497141        -0.366453        -0.307576
 O        -3.040497        -0.141241         0.915114
 C        -2.896436         0.750371        -1.139683
 C        -4.423080         1.065600        -0.992650
 O        -4.589932         1.288324        -2.459190
 C        -3.287219         0.540556        -2.632618
 H         1.533075         1.215253         1.068546
 H         2.089373        -0.485020         0.872716
 H         1.705138         0.727756        -0.534520
 H        -2.957263        -1.254383        -0.826022
 H        -2.866225        -0.926398         1.417284
 H        -2.279201         1.573645        -0.986760
 H        -4.918996         0.087154        -0.602549
 H        -4.674389         1.849853        -0.256963
 H        -3.453652        -0.520376        -2.900430
 H        -2.809093         1.112981        -3.632185
