19
Iteration:   375charge 0 multiplicity 1
 C         1.293350         0.061189        -0.510932
 C        -0.132090         0.123606        -0.228379
 C        -1.264830        -0.028625         0.227147
 C        -2.765951        -0.190103         0.233306
 O        -3.418696         0.290441         1.468580
 C        -3.060499         0.901054        -0.821005
 C        -4.411449         1.003549        -1.450635
 O        -3.997720         0.501078        -2.738517
 C        -2.629934         0.298627        -2.123682
 H         1.535396        -0.160863        -1.531196
 H         1.739662         0.975976        -0.153848
 H         1.666202        -0.726980         0.164423
 H        -3.174102        -1.204660        -0.004876
 H        -3.496305        -0.486696         2.087244
 H        -2.489089         1.811971        -0.450065
 H        -5.139966         0.306053        -0.994202
 H        -4.949944         1.920666        -1.557015
 H        -2.231771        -0.700676        -1.949165
 H        -1.855325         0.736253        -2.721866
