19
Iteration:  4254charge 0 multiplicity 1
 C         1.483860         0.133512         0.629370
 C         0.164204        -0.090371         0.162028
 C        -0.965006        -0.357024        -0.114581
 C        -2.425262        -0.375051        -0.395469
 O        -3.204212        -0.592509         0.883196
 C        -2.867117         0.891825        -1.128637
 C        -4.455530         1.114132        -1.000565
 O        -4.700528         1.292342        -2.425302
 C        -3.308859         0.848093        -2.602351
 H         1.679431         1.206151         0.920369
 H         1.832782        -0.625743         1.375393
 H         2.323877        -0.006094        -0.151883
 H        -2.621185        -1.179716        -1.037570
 H        -2.622303        -0.770328         1.632098
 H        -2.426477         1.852280        -0.845462
 H        -4.989262         0.214076        -0.622541
 H        -4.752512         1.997121        -0.287703
 H        -3.387125        -0.100487        -3.102350
 H        -2.803274         1.388956        -3.339564
