19
Iteration:  4673
 C         1.411237         0.195662         0.042193
 C        -0.010290        -0.085550        -0.060579
 C        -1.216590        -0.283983        -0.079001
 C        -2.650047        -0.413345        -0.043146
 O        -3.062806        -0.520177         1.319415
 C        -3.241925         0.767565        -0.790167
 C        -4.662547         0.789317        -1.451801
 O        -4.145599         1.431409        -2.673376
 C        -2.827633         1.043744        -2.191767
 H         1.961555        -0.506629         0.645113
 H         1.795412        -0.022071        -0.942453
 H         1.712284         1.246943         0.319897
 H        -2.913798        -1.410366        -0.540675
 H        -3.435550        -1.404994         1.481993
 H        -3.277159         1.562160        -0.152287
 H        -4.877909        -0.262546        -1.774717
 H        -5.557433         1.273026        -0.952206
 H        -2.386214         0.097713        -2.617068
 H        -2.020548         1.855086        -2.434968
