19
Iteration:   191
 C         1.498946        -0.329593         0.013678
 C         0.026585        -0.051984         0.098734
 C        -1.188921        -0.144336        -0.029054
 C        -2.723703        -0.012052         0.232310
 O        -2.848540         0.632573         1.453627
 C        -3.523935         0.830989        -0.916651
 C        -4.717344         0.148847        -1.608025
 O        -4.176497         0.648168        -2.912052
 C        -2.844240         1.090109        -2.273419
 H         2.290531         0.535515        -0.248126
 H         1.805300        -0.807459         0.873865
 H         1.497890        -0.991548        -0.880132
 H        -3.167875        -1.017515         0.309600
 H        -2.017373         0.471512         1.953617
 H        -3.863362         1.762622        -0.417259
 H        -4.702456        -0.940718        -1.498471
 H        -5.773847         0.370348        -1.539906
 H        -1.900862         0.720715        -2.541008
 H        -2.803229         2.196275        -2.415741
