19
Iteration:  4023charge 0 multiplicity 1
 C         1.487720        -0.382564        -0.031383
 C         0.068439        -0.021663        -0.040066
 C        -1.164031         0.060554        -0.000151
 C        -2.638807        -0.110127        -0.006836
 O        -3.199618        -0.218856         1.297071
 C        -3.374204         1.022424        -0.787279
 C        -4.633976         0.528218        -1.413415
 O        -4.098665         0.753427        -2.747007
 C        -2.853574         1.398157        -2.191758
 H         1.623495        -1.439318         0.384486
 H         1.810190        -0.260999        -1.116032
 H         2.048298         0.221497         0.621264
 H        -2.836730        -0.996075        -0.589898
 H        -2.891709        -1.070299         1.617393
 H        -3.269418         1.918933        -0.088218
 H        -5.088036        -0.379634        -1.139517
 H        -5.484703         1.260721        -1.328942
 H        -1.904412         0.890804        -2.621525
 H        -2.644493         2.522947        -2.414821
