19
Iteration:  1758
 C         1.439006        -0.554226         0.584660
 C         0.230589         0.136845         0.169155
 C        -0.983586         0.402036        -0.041832
 C        -2.360418         0.082711        -0.190896
 O        -2.962242         0.217433         1.102914
 C        -3.135844         0.924344        -1.187631
 C        -4.623584         0.694821        -1.214648
 O        -4.693015         0.732552        -2.639149
 C        -3.222394         0.415251        -2.603842
 H         1.526442        -1.430664         0.044304
 H         2.384436         0.055335         0.672133
 H         1.220624        -0.983599         1.579920
 H        -2.387520        -1.120140        -0.482212
 H        -2.233478         0.571603         1.698806
 H        -2.946229         2.025383        -1.117416
 H        -4.848727        -0.309275        -0.726168
 H        -5.271757         1.533684        -0.769724
 H        -3.103188        -0.679401        -2.674268
 H        -2.700263         1.097220        -3.362773
