19
Iteration:  4664
 C         1.429804         0.181124        -0.028655
 C         0.011037        -0.038599        -0.036896
 C        -1.165235        -0.344560        -0.054265
 C        -2.646878        -0.478798        -0.044226
 O        -3.106732        -0.504080         1.328373
 C        -3.318607         0.829749        -0.725518
 C        -4.677342         0.818764        -1.529594
 O        -4.117428         1.381155        -2.659354
 C        -2.792028         1.066760        -2.171877
 H         1.995531        -0.540810         0.629829
 H         1.827142         0.116176        -1.085966
 H         1.689076         1.150436         0.351490
 H        -2.875923        -1.358724        -0.551812
 H        -3.424726        -1.413155         1.524720
 H        -3.203342         1.676650        -0.020870
 H        -5.036454        -0.491604        -1.746021
 H        -5.669978         1.306254        -1.136305
 H        -2.345243         0.190735        -2.708350
 H        -2.164673         2.083980        -2.389131
