19
Iteration:  2689
 C         1.506484        -0.135908         0.050813
 C         0.057932        -0.201239        -0.140403
 C        -1.148576        -0.313386        -0.026724
 C        -2.621854        -0.103864        -0.027902
 O        -3.241144        -0.094796         1.299466
 C        -3.238145         1.055318        -0.812570
 C        -4.620469         0.550363        -1.310180
 O        -4.147754         0.685471        -2.775359
 C        -2.914369         1.328308        -2.237391
 H         2.012029        -0.672880         0.816472
 H         1.923929        -0.426437        -0.947072
 H         1.777389         0.949767         0.529292
 H        -3.021991        -1.095385        -0.478582
 H        -2.987452         0.818374         1.591789
 H        -3.201712         1.965502        -0.242263
 H        -4.982830        -0.481763        -1.051439
 H        -5.482248         1.173438        -1.041262
 H        -1.988291         0.924104        -2.735138
 H        -2.790376         2.381697        -2.306769
