19
Iteration:   371charge 0 multiplicity 1
 C         1.261976         0.041311        -0.562667
 C        -0.164479         0.125416        -0.235264
 C        -1.271265        -0.008741         0.251293
 C        -2.779055        -0.136843         0.266261
 O        -3.419401         0.260485         1.426803
 C        -3.064239         0.917588        -0.810359
 C        -4.409555         0.980282        -1.430632
 O        -3.960214         0.502903        -2.713152
 C        -2.602143         0.280480        -2.116672
 H         1.587106        -0.119932        -1.582760
 H         1.823058         0.951464        -0.026264
 H         1.630363        -0.663489         0.205934
 H        -3.182258        -1.103816        -0.025585
 H        -3.508374        -0.491696         2.023168
 H        -2.453397         1.745790        -0.643042
 H        -5.115586         0.290036        -0.940323
 H        -5.019572         1.921737        -1.592182
 H        -2.251531        -0.805471        -2.065559
 H        -1.805714         0.833107        -2.634088
