19
Iteration:  1223
 C         1.023782        -0.660854        -0.740259
 C        -0.382253        -0.522665        -0.381560
 C        -1.392345        -0.176116         0.238134
 C        -2.836391        -0.039376         0.574363
 O        -3.002594         1.039480         1.563321
 C        -3.711742         0.366702        -0.709794
 C        -3.439504        -0.253949        -2.177853
 O        -3.329926         1.110841        -2.783286
 C        -3.494549         1.663243        -1.473690
 H         1.512127         0.421285        -0.825890
 H         1.560148        -1.120767         0.055858
 H         1.032420        -1.351185        -1.627122
 H        -3.229745        -0.948200         1.083316
 H        -2.848254         1.920562         1.174035
 H        -4.754197         0.340188        -0.243211
 H        -2.560963        -0.791202        -2.170300
 H        -4.279419        -0.751142        -2.647929
 H        -2.601208         2.246254        -1.178943
 H        -4.397898         2.293812        -1.565556
