19
Iteration:  2942
 C         1.343542         0.163083         0.698810
 C         0.037218        -0.063900         0.165711
 C        -1.026036        -0.266642        -0.394808
 C        -2.497246        -0.335479        -0.328863
 O        -2.974693        -0.405865         1.134819
 C        -2.939411         0.859303        -1.144587
 C        -4.383317         1.303592        -1.029188
 O        -4.609503         1.067691        -2.450344
 C        -3.294834         0.501380        -2.735931
 H         1.470857         1.195431         0.749288
 H         1.560691        -0.331951         1.684799
 H         2.146594        -0.229682        -0.046510
 H        -2.905523        -1.326177        -0.758677
 H        -2.320239         0.175823         1.509359
 H        -2.206326         1.580746        -0.926880
 H        -5.041716         0.730271        -0.313741
 H        -4.747962         2.260260        -0.752109
 H        -3.317650        -0.588416        -2.770870
 H        -2.888839         1.158220        -3.633415
