19
Iteration:  1426charge 0 multiplicity 1
 C         1.240556        -0.296265        -0.341069
 C        -0.056496        -0.006767        -0.051270
 C        -1.255984         0.137626         0.142079
 C        -2.625904        -0.122447         0.230840
 O        -3.240007         0.070136         1.541205
 C        -3.319665         0.754315        -0.805280
 C        -4.543733         0.216751        -1.676911
 O        -3.961387         0.949109        -2.857960
 C        -2.714325         1.235143        -2.114626
 H         1.705183        -0.058593        -1.273762
 H         2.029811        -0.049320         0.547723
 H         1.360948        -1.403482        -0.398421
 H        -2.817443        -1.159825         0.042225
 H        -2.501052         0.349182         2.103902
 H        -3.844274         1.576508        -0.288714
 H        -4.475500        -0.881285        -1.765758
 H        -5.565174         0.619256        -1.448709
 H        -1.860524         0.594895        -2.364698
 H        -2.216087         2.259137        -2.211637
