19
Iteration:  3037
 C         1.541436        -0.275800         0.302428
 C         0.123614        -0.040173         0.352427
 C        -1.052758         0.019825         0.138195
 C        -2.436258        -0.088453        -0.271235
 O        -3.177372        -0.174034         0.943009
 C        -3.034939         1.013226        -1.090068
 C        -4.604164         0.827405        -1.110706
 O        -4.580013         0.735649        -2.572225
 C        -3.113486         0.960309        -2.580097
 H         1.953627         0.585581        -0.486681
 H         2.015457        -0.120511         1.276785
 H         1.857629        -1.246998        -0.173036
 H        -2.645031        -1.061676        -0.717610
 H        -2.600602        -0.211146         1.712911
 H        -2.609649         1.918551        -0.628189
 H        -4.814355        -0.172160        -0.642381
 H        -5.299197         1.563350        -0.598362
 H        -2.544618         0.039205        -2.998358
 H        -3.001211         1.882407        -3.099333
