19
Iteration:   584charge 0 multiplicity 1
 C         1.666619        -0.345838         0.845747
 C         0.335729         0.109309         0.258268
 C        -0.806285         0.391092        -0.091758
 C        -2.355942         0.053972        -0.322095
 O        -3.116420         0.197350         0.962690
 C        -3.045822         0.886551        -1.290852
 C        -4.614363         0.867416        -1.142661
 O        -4.881864         0.560531        -2.437080
 C        -3.403190         0.333006        -2.795768
 H         1.591513        -1.527574         0.902048
 H         2.529481        -0.103226         0.199696
 H         1.898657         0.101210         1.846807
 H        -2.416827        -0.994829        -0.606818
 H        -2.645824        -0.358649         1.617324
 H        -2.765927         1.921662        -1.489559
 H        -5.030874         0.211533        -0.354362
 H        -4.940674         1.874801        -0.908777
 H        -3.154650        -0.720007        -3.133420
 H        -3.138906         1.096111        -3.547532
