19
Iteration:  2506
 C         1.319036         0.006137        -0.294399
 C         0.036501        -0.072609         0.216483
 C        -1.178485        -0.070805         0.245737
 C        -2.600156        -0.251980         0.050366
 O        -3.322212        -0.019504         1.286915
 C        -3.128116         0.861152        -0.858247
 C        -4.556550         0.646986        -1.383022
 O        -4.185214         0.895117        -2.752948
 C        -2.763945         0.928662        -2.345756
 H         1.355853        -0.534881        -1.304616
 H         1.778666         1.067107        -0.483481
 H         2.067352        -0.423599         0.355644
 H        -2.745170        -1.353840        -0.427937
 H        -3.027879        -0.645565         2.008781
 H        -2.967279         1.816248        -0.275546
 H        -4.823042        -0.384803        -1.112941
 H        -5.361810         1.256233        -0.983823
 H        -2.329628         0.095280        -2.725780
 H        -2.085535         1.694810        -2.686665
