19
Iteration:  2615
 C         1.341808        -0.242389        -0.203075
 C        -0.076648         0.074588        -0.116811
 C        -1.284014        -0.002387        -0.101347
 C        -2.724487        -0.059404         0.084372
 O        -3.002173        -0.176276         1.549397
 C        -3.505597         1.029802        -0.708756
 C        -4.751567         0.734321        -1.677458
 O        -3.782244         0.460886        -2.742859
 C        -2.745567         1.207945        -2.051605
 H         1.641897        -1.264029        -0.084095
 H         1.730843         0.175078        -1.173753
 H         1.830380         0.173673         0.605931
 H        -3.144612        -0.968475        -0.358171
 H        -2.355270        -0.781908         1.896361
 H        -3.638431         1.937277        -0.078711
 H        -5.427464        -0.157361        -1.483297
 H        -5.385123         1.631931        -1.794946
 H        -1.668681         0.703986        -2.120444
 H        -2.779691         2.237167        -2.535785
