19
Iteration:   792charge 0 multiplicity 1
 C         1.286499         0.010485        -0.454106
 C        -0.045943        -0.065729         0.018277
 C        -1.156288         0.085609         0.352406
 C        -2.605255        -0.101354         0.274278
 O        -3.377375         0.065697         1.444730
 C        -3.182943         0.847064        -0.858438
 C        -4.551735         0.641755        -1.505552
 O        -4.058486         0.894615        -2.814975
 C        -2.654998         0.604993        -2.263119
 H         2.018245        -0.125263         0.423732
 H         1.580136        -0.814357        -1.038362
 H         1.511741         0.893481        -1.072511
 H        -2.691289        -1.200278        -0.028284
 H        -3.594114        -0.847683         1.640234
 H        -2.982162         1.883887        -0.556826
 H        -4.859735        -0.439286        -1.366814
 H        -5.437363         1.300424        -1.221768
 H        -2.446086        -0.444758        -2.573721
 H        -1.909692         1.330950        -2.559146
