19
Iteration:  2719charge 0 multiplicity 1
 C         1.583094        -0.171703         0.080174
 C         0.089299        -0.153501         0.039536
 C        -1.112455         0.043543         0.118695
 C        -2.537826        -0.291810        -0.036579
 O        -3.261025        -0.241410         1.262291
 C        -3.190309         0.893530        -0.909648
 C        -4.690301         0.696865        -1.271599
 O        -4.318292         0.863222        -2.751181
 C        -2.927210         1.173607        -2.415564
 H         2.105041        -0.726094         0.923801
 H         1.980065        -0.616521        -0.815523
 H         1.932350         0.894201        -0.126525
 H        -2.784574        -1.222283        -0.474160
 H        -3.092476         0.692243         1.551227
 H        -2.980500         1.814501        -0.336960
 H        -5.046973        -0.286577        -0.967395
 H        -5.300475         1.580632        -0.972644
 H        -2.321167         0.541590        -3.001327
 H        -2.513483         2.240141        -2.742451
