19
Iteration:  4737
 C         1.549126         0.199886         0.316491
 C         0.124994        -0.078781         0.028109
 C        -1.036039        -0.467061        -0.087381
 C        -2.544737        -0.447371        -0.193105
 O        -3.193134        -0.429508         1.079490
 C        -3.182472         0.788539        -0.897941
 C        -4.701957         0.881203        -1.236937
 O        -4.373271         1.401647        -2.507003
 C        -2.978166         1.011924        -2.435764
 H         1.831867         0.015272         1.331106
 H         2.087884        -0.503227        -0.278097
 H         1.927877         1.282564         0.077363
 H        -2.931519        -1.350350        -0.766456
 H        -2.945146        -1.271939         1.461420
 H        -2.642353         1.632953        -0.452630
 H        -5.311715        -0.149998        -1.401086
 H        -5.414985         1.555361        -0.723175
 H        -2.779359         0.087648        -3.019516
 H        -2.245829         1.653612        -2.835983
