19
Iteration:  2687
 C         1.509567        -0.141913         0.042216
 C         0.065269        -0.194371        -0.140777
 C        -1.155095        -0.335287        -0.040490
 C        -2.645366        -0.111151        -0.039722
 O        -3.237071        -0.088166         1.313108
 C        -3.260330         1.080998        -0.796411
 C        -4.619219         0.554222        -1.309676
 O        -4.129109         0.667514        -2.774792
 C        -2.905667         1.336271        -2.248780
 H         2.050348        -0.665644         0.838606
 H         1.922344        -0.362469        -0.935848
 H         1.740336         0.923157         0.533402
 H        -2.980250        -1.051552        -0.439137
 H        -2.942662         0.778818         1.574018
 H        -3.232800         1.979584        -0.213598
 H        -4.953842        -0.466960        -1.117272
 H        -5.513129         1.114211        -1.022725
 H        -2.035562         0.896268        -2.636570
 H        -2.777482         2.461448        -2.322461
