19
Iteration:  1797
 C         1.708600        -0.423273         0.426981
 C         0.205195        -0.142038         0.205252
 C        -0.956053         0.032602         0.025000
 C        -2.483052         0.083742        -0.077943
 O        -3.126168         0.496619         1.183858
 C        -3.238731         0.936532        -1.093431
 C        -4.699337         0.604689        -1.284473
 O        -4.618686         0.651759        -2.719658
 C        -3.148395         0.640173        -2.618483
 H         2.177278        -1.363692        -0.077344
 H         2.293348         0.472684         0.060400
 H         1.965319        -0.508228         1.500778
 H        -2.795881        -1.004522        -0.306317
 H        -2.571903         0.374362         1.942150
 H        -3.022727         2.016149        -0.973994
 H        -4.925969        -0.437872        -1.004718
 H        -5.344861         1.380170        -0.876747
 H        -2.601230        -0.237575        -2.952389
 H        -2.640537         1.320752        -3.265676
