19
Iteration:  3082
 C         1.581322        -0.296732         0.255446
 C         0.144140        -0.129143         0.015061
 C        -1.058783         0.046589        -0.107014
 C        -2.577600        -0.073023        -0.085238
 O        -3.160686        -0.064939         1.249938
 C        -3.263704         1.076472        -0.865192
 C        -4.709455         0.737800        -1.291434
 O        -4.335197         0.596625        -2.737313
 C        -2.975632         1.094873        -2.419499
 H         2.150050         0.215364        -0.687549
 H         1.919510         0.196662         1.217268
 H         1.813177        -1.397040         0.384584
 H        -2.792780        -0.957925        -0.633143
 H        -2.773627        -0.739472         1.801826
 H        -3.121208         1.994059        -0.356653
 H        -5.147146        -0.178931        -0.794208
 H        -5.483313         1.576047        -1.201105
 H        -2.196305         0.352830        -2.846438
 H        -2.833098         2.107514        -2.644595
