19
Iteration:  3218charge 0 multiplicity 1
 C         1.329630        -0.064365        -0.579444
 C        -0.076604        -0.225197        -0.182191
 C        -1.248847        -0.159738         0.233918
 C        -2.779861        -0.136831         0.254523
 O        -3.376660        -0.011476         1.579839
 C        -3.442494         0.946286        -0.727003
 C        -4.544440         0.622597        -1.649337
 O        -3.727377         0.682252        -2.808356
 C        -2.603613         1.161098        -2.055760
 H         1.685349        -0.723410        -1.304259
 H         1.704753         0.867247        -1.053738
 H         1.904730        -0.330199         0.363456
 H        -3.026213        -1.081827        -0.117897
 H        -2.714531         0.180763         2.292852
 H        -3.583243         1.848061        -0.075817
 H        -5.126180        -0.327783        -1.567248
 H        -5.321738         1.426109        -1.599671
 H        -1.710635         0.626914        -2.124183
 H        -2.461230         2.204946        -2.210764
