19
Iteration:  2788
 C         1.518576        -0.043185         0.317760
 C         0.123916         0.013022         0.096273
 C        -1.091186         0.137174         0.063356
 C        -2.463670        -0.266931        -0.121857
 O        -3.211034        -0.501936         1.091703
 C        -3.075745         0.830357        -1.023307
 C        -4.639903         1.029430        -1.141995
 O        -4.423840         1.206347        -2.598837
 C        -3.122774         0.576142        -2.596995
 H         1.867310         0.040177         1.312971
 H         1.936402        -1.034887        -0.091939
 H         1.965512         0.741469        -0.478620
 H        -2.374776        -1.235136        -0.537240
 H        -2.598079        -0.442606         1.879326
 H        -2.675829         1.752551        -0.701643
 H        -5.302236         0.183122        -0.842690
 H        -4.949959         2.018485        -0.957416
 H        -3.021687        -0.465929        -2.794774
 H        -2.403130         1.024890        -3.319962
