19
Iteration:   395
 C         1.370974         0.114274        -0.389917
 C        -0.056272         0.033875        -0.055049
 C        -1.242466        -0.220612         0.153382
 C        -2.704575        -0.104995         0.308604
 O        -3.319338         0.313898         1.510291
 C        -3.139802         0.827969        -0.847091
 C        -4.536787         1.017342        -1.474469
 O        -4.062564         0.502128        -2.758828
 C        -2.717960         0.355776        -2.341042
 H         1.513661        -0.180620        -1.379975
 H         1.854929         1.145199        -0.219441
 H         1.980710        -0.464890         0.319438
 H        -3.147653        -1.077229         0.071565
 H        -3.182137        -0.344473         2.179768
 H        -2.674793         1.749605        -0.673898
 H        -5.478895         0.602689        -1.095151
 H        -4.727699         2.102312        -1.628379
 H        -2.427233        -0.709700        -2.569833
 H        -1.992775         0.994917        -2.795128
