19
Iteration:  3266charge 0 multiplicity 1
 C         1.115064        -0.198788        -0.632326
 C        -0.127424         0.149296        -0.014443
 C        -1.300249        -0.087283         0.280529
 C        -2.738186        -0.139870         0.303844
 O        -3.420048        -0.173947         1.577497
 C        -3.154494         0.957432        -0.770708
 C        -4.497484         0.509737        -1.564553
 O        -3.793708         0.878887        -2.840047
 C        -2.503873         1.043394        -2.163654
 H         1.184374        -1.164551        -1.236046
 H         1.190969         0.403775        -1.558384
 H         2.074370        -0.061442        -0.053842
 H        -2.898212        -1.019886        -0.168724
 H        -2.972634         0.393553         2.202459
 H        -3.271495         1.884082        -0.190018
 H        -4.784898        -0.567983        -1.528545
 H        -5.422056         1.105175        -1.403736
 H        -1.962297         0.121551        -2.303484
 H        -1.947083         1.981035        -2.332456
