19
Iteration:  3503
 C         1.623106        -0.192414         0.652910
 C         0.211605        -0.072988         0.380371
 C        -0.930825        -0.197171        -0.062302
 C        -2.380924        -0.106449        -0.321357
 O        -3.154688        -0.135642         0.867988
 C        -2.978752         1.069196        -1.198005
 C        -4.539164         1.104425        -1.072697
 O        -4.759693         0.728438        -2.456492
 C        -3.347508         0.718516        -2.685006
 H         1.832297        -0.185960         1.780417
 H         1.783267        -1.246471         0.304646
 H         2.050607         0.695895         0.039990
 H        -2.621587        -1.014254        -1.069679
 H        -2.546814         0.012301         1.622765
 H        -2.552271         2.029952        -1.086085
 H        -4.979948         0.323779        -0.508504
 H        -4.792645         2.178036        -0.845872
 H        -3.125742        -0.313097        -3.122393
 H        -3.032529         1.312339        -3.555360
