19
Iteration:  1838charge 0 multiplicity 1
 C         1.487876        -0.133096         0.148108
 C         0.027760        -0.357322         0.204722
 C        -1.163605        -0.263546         0.034251
 C        -2.629550        -0.012486         0.078908
 O        -2.974807         0.664917         1.310666
 C        -3.132980         0.891622        -1.037661
 C        -4.637705         0.672979        -1.318949
 O        -4.371711         0.519748        -2.776094
 C        -2.971405         0.753850        -2.568464
 H         2.125279        -0.871160        -0.455004
 H         1.568941         0.634999        -0.548815
 H         1.839009         0.286297         1.081315
 H        -3.226779        -1.002639         0.052321
 H        -2.941526        -0.116876         1.932499
 H        -2.933461         1.837088        -0.557417
 H        -5.096411        -0.300355        -0.871914
 H        -5.291275         1.479206        -1.077998
 H        -2.378137        -0.060647        -3.057226
 H        -2.595972         1.700320        -3.068329
