19
Iteration:   353
 C         1.177004         0.014649        -0.589130
 C        -0.201308         0.074392        -0.229874
 C        -1.252762        -0.010574         0.363325
 C        -2.668945         0.050074         0.269465
 O        -3.541618         0.219958         1.497036
 C        -3.009430         0.949816        -0.871678
 C        -4.458749         0.881501        -1.395986
 O        -3.859639         0.493493        -2.688014
 C        -2.547784         0.314791        -2.199264
 H         1.046373         0.028329        -1.676063
 H         1.736737         0.889203        -0.357489
 H         1.710529        -0.913851        -0.397692
 H        -2.943160        -0.988974        -0.110658
 H        -3.366744        -0.604265         1.944383
 H        -2.802489         2.009565        -0.611384
 H        -5.246864         0.163441        -1.098078
 H        -4.910268         1.858003        -1.396861
 H        -2.189839        -0.724405        -2.082185
 H        -1.782504         0.737815        -2.828569
