19
Iteration:  3656
 C         1.571174         0.017032         0.525877
 C         0.119972        -0.279969         0.149211
 C        -1.109837        -0.484378        -0.103938
 C        -2.539918        -0.221334        -0.280569
 O        -3.095893        -0.068212         1.058519
 C        -2.999401         1.098344        -1.058999
 C        -4.600465         1.089556        -1.164837
 O        -4.553709         0.614463        -2.544731
 C        -3.112360         1.001896        -2.592326
 H         1.519335         1.173857         0.586296
 H         1.864927        -0.522099         1.459911
 H         2.300903        -0.407868        -0.119843
 H        -3.010951        -1.071189        -0.772478
 H        -2.433878        -0.268451         1.714291
 H        -2.562361         1.977368        -0.669107
 H        -5.159017         0.553940        -0.405162
 H        -5.049309         2.111311        -1.031830
 H        -2.650934         0.158037        -3.123613
 H        -3.094104         2.041520        -3.086728
