19
Iteration:  1870charge 0 multiplicity 1
 C         1.343889        -0.027705        -0.059944
 C        -0.139212        -0.182046        -0.094712
 C        -1.285514        -0.417874         0.049034
 C        -2.736117        -0.051110         0.117153
 O        -2.987316         0.591337         1.380925
 C        -3.175658         0.957516        -0.893522
 C        -4.630297         0.817720        -1.418226
 O        -4.132990         0.435428        -2.760148
 C        -2.750842         0.629961        -2.310057
 H         1.970004        -0.977144        -0.143659
 H         1.556446         0.695781        -0.805183
 H         1.732979         0.419475         0.866749
 H        -3.298929        -0.891302         0.142650
 H        -2.656281        -0.046052         2.035823
 H        -2.935264         1.913484        -0.462422
 H        -5.218679         0.005774        -0.888058
 H        -5.093060         1.782706        -1.503891
 H        -2.158787        -0.330159        -2.504678
 H        -2.199506         1.441162        -2.874664
