19
Iteration:  4763charge 0 multiplicity 1
 C         1.485295         0.127866         0.333398
 C         0.094628        -0.206707         0.184803
 C        -1.104993        -0.222693        -0.070906
 C        -2.491506        -0.428273        -0.289151
 O        -3.204655        -0.529062         1.006235
 C        -3.092074         0.837400        -0.974778
 C        -4.531980         0.909419        -1.108849
 O        -4.522677         1.305794        -2.501512
 C        -3.018368         1.053640        -2.506273
 H         1.860676         0.335307         1.388653
 H         2.168110        -0.691045        -0.076906
 H         1.652042         1.060208        -0.139967
 H        -2.787760        -1.466911        -0.969395
 H        -2.506597        -0.661187         1.648300
 H        -2.522482         1.627339        -0.547362
 H        -5.001788         0.028546        -1.136659
 H        -5.121743         1.665041        -0.465213
 H        -2.561531         0.154548        -2.957095
 H        -2.361502         1.829351        -3.166756
