19
Iteration:  1206charge 0 multiplicity 1
 C         0.942131        -0.755926        -0.929685
 C        -0.321442        -0.443398        -0.223146
 C        -1.451186        -0.195602         0.276429
 C        -2.828115         0.120044         0.558467
 O        -3.069006         1.031726         1.652570
 C        -3.690448         0.308767        -0.760144
 C        -3.275018        -0.243894        -2.144903
 O        -3.301390         1.070434        -2.781816
 C        -3.574957         1.717438        -1.461376
 H         1.452248         0.130868        -1.129860
 H         1.716942        -1.319422        -0.333735
 H         0.788742        -1.315501        -1.861036
 H        -3.296544        -0.815901         0.909740
 H        -2.977278         1.928128         1.302172
 H        -4.707507         0.018391        -0.684323
 H        -2.195082        -0.701708        -2.273124
 H        -3.975533        -0.993161        -2.579729
 H        -2.658647         2.248230        -1.150765
 H        -4.517880         2.289793        -1.421855
