19
Iteration:  4193
 C         1.514754         0.189291         0.645058
 C         0.120744        -0.133911         0.152867
 C        -1.008878        -0.469895        -0.278191
 C        -2.515288        -0.374464        -0.402331
 O        -3.119665        -0.548915         0.898825
 C        -2.974049         0.999452        -1.015366
 C        -4.498354         1.281295        -1.009233
 O        -4.630467         1.048551        -2.395984
 C        -3.196304         0.881718        -2.606241
 H         1.458901         0.739255         1.554889
 H         1.980449        -0.719649         0.953303
 H         2.031830         0.688196        -0.179925
 H        -3.020088        -1.008189        -1.036603
 H        -2.574448        -1.300194         1.202454
 H        -2.215560         1.788297        -0.730842
 H        -5.185251         0.546110        -0.386412
 H        -4.639896         2.291713        -0.646729
 H        -3.134260        -0.142448        -3.013402
 H        -2.733297         1.787975        -3.135958
