19
Iteration:  1276charge 0 multiplicity 1
 C         1.176745        -0.509284        -0.321641
 C        -0.249202        -0.316772        -0.211540
 C        -1.493543        -0.308760        -0.253635
 C        -2.876041        -0.101858         0.339501
 O        -2.734822         0.894764         1.370518
 C        -3.925098         0.429442        -0.663586
 C        -3.940817        -0.162523        -2.076897
 O        -3.398681         0.960022        -2.722589
 C        -3.275230         1.754152        -1.440723
 H         1.630358         0.534487        -0.659641
 H         1.718640        -0.673504         0.606930
 H         1.465177        -1.239549        -1.117966
 H        -3.295419        -0.971387         0.868712
 H        -1.794613         1.100579         1.526870
 H        -4.966081         0.601329        -0.194193
 H        -3.354160        -1.188512        -2.092303
 H        -4.981396        -0.488887        -2.478115
 H        -2.198243         1.739851        -1.219247
 H        -3.777507         2.681579        -1.591946
