19
Iteration:   618
 C         1.619844        -0.088046         0.755611
 C         0.236871         0.059092         0.281562
 C        -0.948083        -0.070068        -0.053799
 C        -2.380804        -0.096631        -0.322143
 O        -3.014527         0.210422         0.954977
 C        -3.028133         0.975379        -1.312949
 C        -4.556787         1.050507        -1.141481
 O        -4.846660         0.422394        -2.377977
 C        -3.337770         0.477570        -2.781054
 H         1.815933        -1.100920         1.326260
 H         2.300623         0.022289        -0.042581
 H         1.862596         0.657433         1.541413
 H        -2.780863        -1.033812        -0.662103
 H        -2.911660        -0.593030         1.462781
 H        -2.440351         1.913518        -1.212086
 H        -5.094418         0.604356        -0.308618
 H        -4.817322         2.104492        -1.230832
 H        -2.929271        -0.475931        -3.163336
 H        -3.210597         1.241330        -3.582569
