19
Iteration:  1927
 C         1.289650        -0.018883        -0.554243
 C        -0.148824        -0.039211        -0.105017
 C        -1.292046        -0.125157         0.281739
 C        -2.805924        -0.026988         0.290045
 O        -3.283199         0.271454         1.650694
 C        -3.154964         1.023807        -0.828115
 C        -4.523261         1.092497        -1.689424
 O        -3.953234         0.351141        -2.785857
 C        -2.608286         0.373709        -2.169727
 H         1.772719        -1.131397        -0.463326
 H         1.425399         0.196592        -1.602727
 H         1.832305         0.684552         0.089307
 H        -3.185747        -0.954422         0.109971
 H        -2.473229         0.123658         2.181352
 H        -2.710861         1.976797        -0.482475
 H        -5.447040         0.519857        -1.227374
 H        -5.062863         2.008570        -1.865867
 H        -2.245120        -0.692562        -2.100391
 H        -1.913561         1.104318        -2.690062
