19
Iteration:  4556
 C         1.403833         0.009400        -0.435066
 C        -0.015749        -0.029584         0.012450
 C        -1.249247        -0.077679         0.123869
 C        -2.683259        -0.259664        -0.002989
 O        -3.382584        -0.729853         1.182334
 C        -3.307401         0.947965        -0.602563
 C        -4.583237         0.761517        -1.512927
 O        -3.793150         0.826386        -2.672150
 C        -2.747538         1.475978        -1.920760
 H         1.666122        -0.994435        -0.931137
 H         1.565088         0.807456        -1.253079
 H         2.021352         0.200216         0.411253
 H        -2.781853        -1.238164        -0.758705
 H        -3.642456         0.161932         1.553694
 H        -3.516503         1.651596         0.398345
 H        -5.087230        -0.300522        -1.410174
 H        -5.341842         1.586002        -1.359623
 H        -1.782385         1.290242        -2.304147
 H        -2.799331         2.490092        -1.972883
