19
Iteration:   745
 C         1.356860         0.233728        -0.185390
 C        -0.061314        -0.027871         0.068953
 C        -1.233276        -0.294197         0.078006
 C        -2.645495        -0.236848         0.125872
 O        -3.322240         0.041536         1.375793
 C        -3.025805         0.859865        -0.861286
 C        -4.550687         1.079509        -1.384054
 O        -4.133008         0.616010        -2.756071
 C        -2.798902         0.511895        -2.341299
 H         2.035635         0.010691         0.520956
 H         1.779888        -0.300686        -1.122605
 H         1.375815         1.287846        -0.473684
 H        -3.110501        -1.156884        -0.286504
 H        -2.667054         0.055111         2.145642
 H        -2.526197         1.726774        -0.483255
 H        -5.437571         0.524746        -0.990824
 H        -4.792397         2.165117        -1.418339
 H        -2.324308        -0.497940        -2.453532
 H        -2.264473         1.297815        -2.882041
