19
Iteration:  1217
 C         1.003238        -0.703196        -0.795059
 C        -0.347043        -0.493435        -0.344800
 C        -1.410575        -0.179905         0.275325
 C        -2.876038         0.028264         0.573492
 O        -3.018867         1.034358         1.603173
 C        -3.699949         0.348360        -0.733131
 C        -3.372234        -0.253601        -2.172324
 O        -3.321726         1.111069        -2.812698
 C        -3.531764         1.647439        -1.469044
 H         1.319372         0.225363        -1.068139
 H         1.668176        -1.274465        -0.058846
 H         0.997724        -1.193251        -1.767573
 H        -3.197586        -0.875311         1.129735
 H        -2.941913         1.904041         1.231262
 H        -4.631553         0.261832        -0.242501
 H        -2.328795        -0.856031        -2.126736
 H        -4.222295        -0.750154        -2.682513
 H        -2.714608         2.314885        -1.126759
 H        -4.371119         2.378503        -1.460362
