19
Iteration:  2456
 C         1.495414         0.092490         0.096806
 C         0.063739         0.073144        -0.230456
 C        -1.120263        -0.134356         0.013152
 C        -2.644518        -0.269597         0.117883
 O        -3.161084        -0.177500         1.414028
 C        -3.237532         0.805531        -0.795953
 C        -4.716332         0.899047        -1.484004
 O        -4.141272         1.124656        -2.813053
 C        -2.990416         0.517475        -2.312528
 H         2.210005         0.104231        -0.731300
 H         1.798746         1.035106         0.443806
 H         1.787536        -0.711985         0.858622
 H        -2.945842        -1.231253        -0.291366
 H        -2.575470        -0.564576         2.068773
 H        -2.771350         1.770297        -0.596646
 H        -5.343248        -0.034310        -1.182947
 H        -5.305660         1.823424        -1.190691
 H        -2.869084        -0.718998        -2.483810
 H        -2.064299         0.739808        -2.898277
