19
Iteration:  2440
 C         1.450766         0.183523         0.180987
 C         0.030633        -0.039538        -0.170123
 C        -1.178380        -0.126637        -0.061612
 C        -2.609538        -0.255681         0.001058
 O        -3.049392        -0.164777         1.435169
 C        -3.261054         0.785578        -0.944159
 C        -4.688461         1.000629        -1.378599
 O        -4.187355         1.143059        -2.739840
 C        -2.945024         0.372679        -2.355517
 H         2.140550         0.112993        -0.703892
 H         1.594296         1.033987         0.957656
 H         1.756593        -0.593765         0.849093
 H        -2.998682        -1.264851        -0.254490
 H        -2.303942        -0.570367         1.858052
 H        -2.886358         1.801357        -0.680303
 H        -5.340411         0.183619        -1.515199
 H        -5.324772         1.784628        -1.022818
 H        -3.119263        -0.749267        -2.557641
 H        -2.028608         0.732184        -2.848760
