19
Iteration:   131charge 0 multiplicity 1
 C         1.571871        -0.393736         0.390692
 C         0.130965        -0.363635         0.027950
 C        -1.034290        -0.028111        -0.065497
 C        -2.475942         0.161442        -0.041662
 O        -2.955241         0.610088         1.411949
 C        -3.408243         0.894117        -0.979465
 C        -4.532015        -0.039064        -1.552747
 O        -4.523018         0.791045        -2.746120
 C        -3.144653         1.178851        -2.475438
 H         1.969534         0.396432         0.896491
 H         1.809163        -1.449487         0.949569
 H         2.167567        -0.638133        -0.512646
 H        -2.873810        -0.845065         0.043103
 H        -2.268944         1.215600         1.678905
 H        -3.941629         1.717117        -0.455570
 H        -4.307027        -1.100288        -1.634092
 H        -5.535073        -0.035505        -1.058810
 H        -2.351240         0.440623        -2.809906
 H        -3.024622         2.142579        -2.925994
