19
Iteration:  2391
 C         1.406412         0.315020         0.367445
 C         0.041912        -0.145466         0.200870
 C        -1.070639        -0.608779        -0.030286
 C        -2.559211        -0.352778        -0.094388
 O        -2.964649         0.081100         1.170961
 C        -3.042573         0.772196        -1.107171
 C        -4.593449         0.988578        -1.169910
 O        -4.463453         1.093752        -2.695435
 C        -3.130682         0.536466        -2.581796
 H         1.593105         0.763137        -0.595561
 H         1.499688         0.917335         1.254749
 H         2.177115        -0.499760         0.563420
 H        -3.183381        -1.324977        -0.422410
 H        -2.236976        -0.300460         1.738413
 H        -2.543473         1.695948        -0.826496
 H        -5.347180         0.277984        -0.727092
 H        -4.970985         2.002506        -0.900224
 H        -3.110355        -0.355013        -3.098583
 H        -2.363441         1.122556        -3.141996
