19
Iteration:  3316
 C         1.240179        -0.063916        -0.530590
 C        -0.031336        -0.170225         0.015544
 C        -1.199551         0.023334         0.189698
 C        -2.671813        -0.149497         0.260478
 O        -3.439734        -0.093865         1.435534
 C        -3.248229         0.754791        -0.767900
 C        -4.553202         0.650756        -1.540340
 O        -3.893697         1.058791        -2.730383
 C        -2.586671         0.806474        -2.149864
 H         1.743754        -1.014847        -0.555583
 H         1.375400         0.252116        -1.581091
 H         1.886757         0.587917         0.122888
 H        -2.702379        -1.245027        -0.241524
 H        -3.454804         0.884851         1.678744
 H        -3.310714         1.776492        -0.288235
 H        -4.788015        -0.416902        -1.637399
 H        -5.409361         1.267925        -1.191424
 H        -2.217196        -0.251016        -2.535528
 H        -1.891947         1.661283        -2.287773
