19
Iteration:  3987
 C         1.427541        -0.281770        -0.182821
 C         0.002452        -0.254830         0.001330
 C        -1.179024        -0.004501         0.057990
 C        -2.679700        -0.116923         0.035590
 O        -3.160032        -0.098154         1.384341
 C        -3.404532         0.956198        -0.744585
 C        -4.679003         0.490437        -1.562284
 O        -3.960815         0.783382        -2.801922
 C        -2.809145         1.433469        -2.088996
 H         1.893895        -1.335367        -0.434169
 H         1.784287         0.267930        -1.131232
 H         1.954334         0.373097         0.572061
 H        -2.927150        -1.059498        -0.333896
 H        -2.580989        -0.625027         1.954863
 H        -3.745045         1.797627        -0.166226
 H        -5.013422        -0.532061        -1.447221
 H        -5.535316         1.258293        -1.471126
 H        -1.939622         0.847389        -2.379646
 H        -2.807156         2.536863        -2.199228
