19
Iteration:  4601charge 0 multiplicity 1
 C         1.339161         0.111557        -0.309760
 C        -0.037746        -0.138302        -0.124068
 C        -1.232643        -0.207025         0.170860
 C        -2.683026        -0.281073        -0.042209
 O        -3.406789        -0.597700         1.198966
 C        -3.317621         0.934341        -0.631911
 C        -4.501828         0.588123        -1.450694
 O        -3.932880         1.049835        -2.683441
 C        -2.672664         1.412774        -2.003355
 H         2.027808        -0.808317        -0.381432
 H         1.468231         0.573964        -1.354967
 H         1.704045         0.749323         0.458016
 H        -2.874798        -1.251962        -0.771545
 H        -2.754405        -0.521964         1.951074
 H        -3.223993         1.927431         0.040744
 H        -4.802718        -0.412735        -1.444224
 H        -5.346369         1.222141        -1.155554
 H        -1.773350         0.969773        -2.376024
 H        -2.429687         2.418451        -2.043963
