19
Iteration:   731
 C         1.334212         0.301907        -0.083403
 C        -0.091777        -0.024136        -0.033850
 C        -1.260429        -0.314944         0.058205
 C        -2.787090        -0.319231         0.019046
 O        -3.240147         0.052286         1.360531
 C        -3.046961         0.857465        -0.917042
 C        -4.422748         1.138222        -1.319462
 O        -4.214384         0.546047        -2.618899
 C        -2.725228         0.526562        -2.423227
 H         1.695135        -0.107986         0.886747
 H         1.748763        -0.248824        -0.948919
 H         1.591222         1.359264        -0.112439
 H        -3.169355        -1.254712        -0.268096
 H        -2.475496         0.426127         1.798968
 H        -2.572847         1.789874        -0.485737
 H        -5.232304         0.666870        -0.767424
 H        -4.579830         2.198113        -1.410417
 H        -2.374891        -0.472616        -2.652022
 H        -2.079588         1.222547        -3.030358
