19
Iteration:  4221
 C         1.456331         0.180448         0.616911
 C         0.132644        -0.210258         0.237033
 C        -1.024539        -0.270481        -0.211417
 C        -2.434888        -0.457439        -0.439765
 O        -3.073618        -0.513773         0.845336
 C        -2.986647         0.814379        -1.049416
 C        -4.469488         1.257500        -0.992128
 O        -4.685153         1.174374        -2.418874
 C        -3.250253         0.866021        -2.557235
 H         1.409850         1.014341         1.384498
 H         2.004535        -0.563009         1.270621
 H         1.978959         0.358128        -0.383095
 H        -2.727027        -1.368894        -1.115524
 H        -2.567263        -1.242008         1.296218
 H        -2.292032         1.667652        -0.786341
 H        -5.218158         0.664222        -0.511775
 H        -4.322321         2.327016        -0.609784
 H        -3.196241        -0.095674        -3.098270
 H        -2.732848         1.657790        -3.052563
