19
Iteration:  2692
 C         1.501739        -0.112744         0.059342
 C         0.051760        -0.213973        -0.131260
 C        -1.145673        -0.273368        -0.006554
 C        -2.587969        -0.109437        -0.012761
 O        -3.243047        -0.099802         1.277746
 C        -3.207720         1.006475        -0.833166
 C        -4.624590         0.546793        -1.315967
 O        -4.174972         0.714924        -2.767094
 C        -2.921003         1.306847        -2.230707
 H         1.934595        -0.785288         0.831093
 H         1.961685        -0.463387        -0.912871
 H         1.806519         0.879548         0.396066
 H        -3.053147        -1.071093        -0.504292
 H        -3.077546         0.820870         1.639784
 H        -3.170558         1.969495        -0.241323
 H        -4.970941        -0.471977        -0.977293
 H        -5.434278         1.291038        -1.098274
 H        -1.966703         0.951188        -2.836030
 H        -2.851600         2.373517        -2.344882
