19
Iteration:  1104charge 0 multiplicity 1
 C         0.805541        -0.881981        -1.077946
 C        -0.340905        -0.350349        -0.330103
 C        -1.301056         0.044491         0.319988
 C        -2.807143         0.104066         0.560852
 O        -3.211456         1.140916         1.374224
 C        -3.653655         0.244081        -0.757057
 C        -3.130891        -0.243394        -2.068510
 O        -3.271596         1.035832        -2.627601
 C        -3.552741         1.641915        -1.278084
 H         1.607520        -0.144813        -0.841524
 H         1.247925        -1.745308        -0.640544
 H         0.528410        -1.195478        -2.111721
 H        -3.057395        -0.910872         0.996141
 H        -3.799690         0.626511         1.951368
 H        -4.748575         0.083937        -0.664417
 H        -2.021929        -0.450847        -1.979274
 H        -3.633644        -1.127809        -2.592036
 H        -2.811907         2.241002        -0.728921
 H        -4.492914         2.296919        -1.278706
