19
Iteration:  4706
 C         1.432750         0.204506         0.224608
 C         0.040384        -0.130674        -0.074653
 C        -1.166406        -0.251551        -0.155006
 C        -2.581275        -0.434721        -0.090414
 O        -3.095039        -0.461441         1.236835
 C        -3.196274         0.732327        -0.858599
 C        -4.647476         0.770600        -1.334627
 O        -4.234236         1.471186        -2.538923
 C        -2.893465         0.982477        -2.360659
 H         1.680290        -0.289554         1.154373
 H         1.983228        -0.204780        -0.615530
 H         1.652520         1.318261         0.169701
 H        -2.957094        -1.402717        -0.751935
 H        -3.455908        -1.383821         1.308552
 H        -2.814846         1.553466        -0.312207
 H        -5.005748        -0.114117        -1.615756
 H        -5.489388         1.322500        -0.826876
 H        -2.840603        -0.030846        -2.795354
 H        -2.049971         1.769777        -2.611057
