19
Iteration:  2600charge 0 multiplicity 1
 C         1.402727        -0.219475        -0.279106
 C        -0.045857         0.099915        -0.139815
 C        -1.255515        -0.019837        -0.038463
 C        -2.792761        -0.083007         0.117577
 O        -3.145506        -0.120128         1.488167
 C        -3.472279         1.098899        -0.662101
 C        -4.588309         0.645295        -1.573428
 O        -3.814151         0.479621        -2.809030
 C        -2.798169         1.185207        -2.033305
 H         1.350198        -1.297774        -0.452002
 H         1.962995         0.135648        -1.140174
 H         2.011094         0.096900         0.722230
 H        -3.061016        -1.132432        -0.469956
 H        -2.702470        -0.923962         1.820388
 H        -3.530794         1.998196        -0.078698
 H        -5.146354        -0.275765        -1.254250
 H        -5.352858         1.425393        -1.812573
 H        -1.757031         0.679299        -2.145369
 H        -2.522732         2.215951        -2.272771
