19
Iteration:  3940
 C         1.356914        -0.161156        -0.303862
 C        -0.129289        -0.158294        -0.175135
 C        -1.337513        -0.229006         0.010964
 C        -2.769035        -0.210024         0.131704
 O        -3.189487         0.034668         1.534823
 C        -3.410172         0.828033        -0.695014
 C        -4.504307         0.453923        -1.619703
 O        -3.824657         0.863624        -2.789594
 C        -2.701944         1.393845        -2.073999
 H         1.628423        -1.063408        -0.897827
 H         1.861340         0.679833        -0.846975
 H         1.792391         0.035453         0.802725
 H        -3.116410        -1.185911        -0.126513
 H        -2.400645        -0.246374         2.068932
 H        -3.465607         1.730274        -0.114529
 H        -4.903424        -0.643949        -1.699792
 H        -5.379015         1.130794        -1.478442
 H        -1.803767         0.908042        -2.304228
 H        -2.750572         2.433980        -2.148527
