19
Iteration:  2869
 C         1.283241         0.344388         0.545393
 C         0.047668        -0.335682         0.265337
 C        -1.050680        -0.415676        -0.209842
 C        -2.439178        -0.458382        -0.378418
 O        -3.004805        -0.093502         0.998600
 C        -2.915672         0.781573        -1.266944
 C        -4.351270         1.056006        -0.953273
 O        -4.539888         1.236886        -2.363730
 C        -3.317232         0.590795        -2.708939
 H         0.869044         1.277981         1.151805
 H         1.995944        -0.190243         1.204415
 H         1.834690         0.691336        -0.285546
 H        -2.827826        -1.397969        -0.717238
 H        -2.783491        -0.827755         1.605011
 H        -2.219391         1.669944        -1.025208
 H        -5.017797         0.332477        -0.466199
 H        -4.696652         1.965253        -0.427235
 H        -3.517864        -0.467478        -2.903486
 H        -2.715904         1.056633        -3.348500
