19
Iteration:  3285
 C         1.236418        -0.149858        -0.694758
 C        -0.079285         0.025763        -0.043624
 C        -1.171771        -0.038703         0.492945
 C        -2.710238        -0.132500         0.330337
 O        -3.445036        -0.186361         1.559039
 C        -3.261058         0.850121        -0.746045
 C        -4.503052         0.644063        -1.651896
 O        -3.851986         0.960013        -2.872196
 C        -2.578189         0.935658        -2.170057
 H         1.346011        -1.161561        -0.858774
 H         1.323452         0.308328        -1.705803
 H         1.963411         0.142413         0.170237
 H        -2.864960        -1.203280        -0.123630
 H        -3.181836         0.570650         2.064908
 H        -3.429292         1.944511        -0.375578
 H        -4.762023        -0.438174        -1.609038
 H        -5.486586         1.095524        -1.409506
 H        -2.016556         0.067992        -2.472301
 H        -2.040802         1.842333        -2.381971
