19
Iteration:  4781
 C         1.521427         0.067178         0.372462
 C         0.077604        -0.210415         0.249440
 C        -1.093271        -0.213154        -0.051981
 C        -2.468736        -0.336438        -0.306897
 O        -3.180127        -0.622430         0.907407
 C        -3.004119         0.963705        -1.019866
 C        -4.536840         0.948746        -1.047955
 O        -4.502143         1.212205        -2.494440
 C        -3.126347         1.015993        -2.538056
 H         1.671119         0.392944         1.382930
 H         2.114401        -0.788806         0.129929
 H         1.780820         0.934685        -0.353919
 H        -2.705350        -1.033294        -0.996559
 H        -2.653467        -0.175672         1.572982
 H        -2.635760         1.795010        -0.387617
 H        -5.184813        -0.064161        -0.676031
 H        -5.143379         1.757016        -0.561643
 H        -2.824956         0.182729        -3.251750
 H        -2.658678         1.882676        -2.883619
