19
Iteration:   649
 C         1.405782         0.144614         0.622127
 C         0.080049        -0.210205         0.259201
 C        -1.059899        -0.224577        -0.228824
 C        -2.482211        -0.115875        -0.252840
 O        -2.998228         0.118386         1.057819
 C        -2.961306         1.044521        -1.244499
 C        -4.485753         1.182883        -1.189338
 O        -4.696433         0.356018        -2.337406
 C        -3.140828         0.502032        -2.701846
 H         2.009938        -0.623308         1.258737
 H         2.058620         0.256044        -0.293189
 H         1.251120         1.201423         0.948910
 H        -2.935437        -1.127391        -0.681659
 H        -2.265813         0.021878         1.733257
 H        -2.314735         1.883655        -1.026577
 H        -5.161588         1.025670        -0.322153
 H        -4.739407         2.237069        -1.445142
 H        -2.656195        -0.480120        -2.938695
 H        -3.124447         1.273587        -3.453988
