19
Iteration:   309charge 0 multiplicity 1
 C         1.020438        -0.029925        -0.765022
 C        -0.008970        -0.090690         0.158353
 C        -1.156374        -0.008212         0.472618
 C        -2.639269        -0.079810         0.314017
 O        -3.478741         0.414470         1.458408
 C        -3.146178         0.789466        -0.877066
 C        -4.529726         0.651032        -1.512361
 O        -3.906631         0.491019        -2.790635
 C        -2.492157         0.704608        -2.242872
 H         0.831342         0.362541        -1.731239
 H         1.814531         0.565095        -0.345858
 H         1.441245        -1.021238        -0.946646
 H        -2.812423        -1.178853         0.115970
 H        -3.146329         0.029180         2.262354
 H        -3.105812         1.810414        -0.475821
 H        -5.298569        -0.009474        -1.079839
 H        -4.981949         1.630283        -1.446765
 H        -1.924129        -0.218689        -2.338383
 H        -1.934302         1.467091        -2.779147
