19
Iteration:  4159charge 0 multiplicity 1
 C         1.403869         0.053056         0.543497
 C         0.141484        -0.168604         0.010051
 C        -1.093889        -0.200994        -0.187250
 C        -2.531149        -0.376011        -0.382293
 O        -3.180166        -0.465784         0.867408
 C        -2.972564         0.969423        -0.953818
 C        -4.496053         1.192209        -0.979773
 O        -4.531529         0.890525        -2.361978
 C        -3.096009         0.994810        -2.557687
 H         1.312484         0.395054         1.517700
 H         2.009657        -0.777681         0.388052
 H         1.994017         0.905547         0.088818
 H        -2.705280        -1.234899        -0.943048
 H        -2.718465        -0.992129         1.567236
 H        -2.187714         1.797188        -0.631398
 H        -5.223348         0.396605        -0.533914
 H        -4.830180         2.187421        -0.668537
 H        -2.645242         0.201906        -3.210424
 H        -2.611740         1.903629        -3.108240
