19
Iteration:  1480
 C         1.418364        -0.026405        -0.353179
 C         0.002746        -0.056263         0.063484
 C        -1.127235        -0.208838         0.370931
 C        -2.644522        -0.106504         0.197202
 O        -3.436882        -0.071371         1.346951
 C        -3.137774         0.899319        -0.834301
 C        -4.608823         0.623076        -1.479336
 O        -4.090203         0.991307        -2.763153
 C        -2.719009         0.756956        -2.337711
 H         1.305035         0.377254        -1.375045
 H         2.165271         0.800954         0.149018
 H         1.935598        -1.027402        -0.329827
 H        -2.924304        -1.013823        -0.286059
 H        -3.108481         0.635423         1.883827
 H        -3.220332         1.967316        -0.578758
 H        -4.755550        -0.481140        -1.430023
 H        -5.436564         1.307311        -1.186915
 H        -2.470641        -0.268954        -2.569363
 H        -1.977342         1.566979        -2.655663
