19
Iteration:  4751charge 0 multiplicity 1
 C         1.514737         0.155106         0.317071
 C         0.107535        -0.143333         0.137697
 C        -1.072316        -0.340889        -0.092070
 C        -2.524270        -0.419233        -0.232858
 O        -3.206660        -0.480260         1.034301
 C        -3.053974         0.806626        -0.954531
 C        -4.633064         0.871026        -1.151356
 O        -4.430687         1.371893        -2.554673
 C        -3.033178         1.001685        -2.477915
 H         1.702821         0.155882         1.413488
 H         2.209925        -0.547890        -0.202404
 H         1.727324         1.141212        -0.112617
 H        -2.759659        -1.425021        -0.905586
 H        -2.643970        -0.981941         1.667649
 H        -2.861064         1.666620        -0.364000
 H        -5.114981        -0.046874        -1.028707
 H        -5.111825         1.664585        -0.457411
 H        -2.884155         0.113056        -3.104114
 H        -2.451977         1.981953        -2.665751
