19
Iteration:  4168
 C         1.388494         0.090851         0.572387
 C         0.079384        -0.154714         0.013712
 C        -1.055555        -0.268691        -0.185571
 C        -2.443091        -0.394934        -0.351516
 O        -3.161587        -0.500328         0.889013
 C        -2.960494         1.012250        -1.017329
 C        -4.471603         1.217179        -0.951083
 O        -4.574518         0.937096        -2.423128
 C        -3.109257         0.957724        -2.565278
 H         1.202384         0.476343         1.542386
 H         1.909651        -0.850580         0.575416
 H         1.894059         0.904658        -0.051305
 H        -2.884929        -1.157750        -1.072220
 H        -2.599311        -1.152788         1.381267
 H        -2.196409         1.817580        -0.577226
 H        -4.922713         0.549335        -0.291201
 H        -4.865893         2.155720        -0.577164
 H        -2.887835        -0.022727        -3.066890
 H        -2.727556         1.922272        -3.038365
