19
Iteration:   520charge 0 multiplicity 1
 C         1.514561        -0.259954         0.674570
 C         0.249279         0.031520         0.226838
 C        -0.856873         0.162399        -0.238450
 C        -2.326144         0.088710        -0.119071
 O        -2.905190         0.261338         1.240314
 C        -3.150742         0.825870        -1.157726
 C        -4.756714         0.756497        -1.258746
 O        -4.732342         0.682661        -2.730155
 C        -3.306984         0.338284        -2.618139
 H         1.754682        -1.302344         0.258810
 H         2.185720         0.396485         0.304912
 H         1.612293        -0.384757         1.740346
 H        -2.616674        -0.942599        -0.334049
 H        -2.683551         1.185483         1.342428
 H        -2.762409         1.913250        -1.083668
 H        -5.207916        -0.150258        -0.806391
 H        -5.278060         1.655184        -0.991820
 H        -3.194489        -0.646583        -2.983247
 H        -2.720069         1.019476        -3.253340
