19
Iteration:  1262charge 0 multiplicity 1
 C         1.201807        -0.503745        -0.434980
 C        -0.249416        -0.399278        -0.290152
 C        -1.519765        -0.350315        -0.208022
 C        -2.858630        -0.059363         0.362977
 O        -2.883585         0.985560         1.408156
 C        -3.901646         0.470448        -0.663384
 C        -3.827799        -0.223337        -2.038844
 O        -3.356964         1.021096        -2.702229
 C        -3.317553         1.648273        -1.420030
 H         1.712427         0.342420        -0.737294
 H         1.549396        -0.961945         0.554447
 H         1.471428        -1.260147        -1.142331
 H        -3.169051        -1.055017         0.797891
 H        -2.036464         1.414048         1.250650
 H        -4.877932         0.595197        -0.185374
 H        -2.867201        -0.912234        -2.103271
 H        -4.723241        -0.668538        -2.559347
 H        -2.321035         2.017545        -1.095718
 H        -3.905333         2.577616        -1.289580
