19
Iteration:  4059
 C         1.581723        -0.328271         0.136488
 C         0.123701        -0.070902         0.006506
 C        -1.118356         0.050674        -0.009897
 C        -2.600339        -0.082241        -0.162062
 O        -3.238795        -0.338182         1.103398
 C        -3.270018         1.086960        -0.771923
 C        -4.729552         0.736402        -1.284673
 O        -4.247556         0.724598        -2.701231
 C        -2.898669         1.271436        -2.249389
 H         1.807421        -1.164783         0.733977
 H         2.044167        -0.664046        -0.776903
 H         2.237445         0.551734         0.405944
 H        -2.685930        -0.991787        -0.728910
 H        -2.785915        -0.960469         1.664788
 H        -3.291631         2.032056        -0.048698
 H        -5.021101        -0.313094        -0.945221
 H        -5.387641         1.583294        -1.105919
 H        -2.023294         0.584424        -2.494134
 H        -2.892332         2.348454        -2.652954
