19
Iteration:    54
 C         1.507826        -0.410120         0.387338
 C         0.162233        -0.022174         0.035120
 C        -1.024493         0.222499        -0.143219
 C        -2.472689        -0.002994        -0.015358
 O        -2.864177         0.310812         1.400880
 C        -3.402320         0.947457        -0.993476
 C        -4.851232         0.360471        -1.403615
 O        -4.448885         0.712454        -2.829097
 C        -3.017086         0.824511        -2.444527
 H         1.740907        -0.337839         1.375973
 H         1.622386        -1.646353         0.337102
 H         2.250212         0.147532        -0.202852
 H        -2.708817        -1.044459        -0.163829
 H        -2.341409         1.111751         1.513352
 H        -3.534273         1.959878        -0.548783
 H        -4.787466        -0.693530        -1.401404
 H        -5.810478         0.898308        -1.074180
 H        -2.608464        -0.146926        -2.647649
 H        -2.352693         1.518888        -2.935081
