19
Iteration:  3008charge 0 multiplicity 1
 C         1.731529        -0.175474         0.463647
 C         0.280767        -0.079146         0.218195
 C        -0.932527         0.004860         0.102285
 C        -2.416820        -0.122523        -0.192948
 O        -3.304288        -0.327125         0.986265
 C        -3.045257         0.909459        -1.091482
 C        -4.582126         1.067754        -1.109135
 O        -4.739601         0.835226        -2.613957
 C        -3.232848         0.817011        -2.732425
 H         1.990626         0.741658         0.165398
 H         2.135627        -0.179980         1.507445
 H         2.199224        -1.099160        -0.002768
 H        -2.556225        -1.184095        -0.652963
 H        -2.942738        -0.096542         1.891846
 H        -2.576341         1.778104        -0.705930
 H        -5.104033         0.305613        -0.528720
 H        -4.927207         1.978995        -0.646942
 H        -2.880798        -0.075552        -3.209242
 H        -2.997753         1.790251        -3.209842
