19
Iteration:  3691
 C         1.466157        -0.028543         0.312221
 C         0.033488        -0.254375         0.023835
 C        -1.147751        -0.202499        -0.124088
 C        -2.591318        -0.228652        -0.130008
 O        -3.181759        -0.026166         1.142410
 C        -3.033060         0.934597        -0.904108
 C        -4.568685         0.923653        -1.208694
 O        -4.419644         0.787301        -2.660877
 C        -2.964384         0.894472        -2.416980
 H         1.893622         0.991248         0.103836
 H         1.665568        -0.038743         1.402039
 H         2.241117        -0.526828        -0.332117
 H        -2.939750        -1.189230        -0.563447
 H        -2.833715        -0.726967         1.689536
 H        -2.524837         1.840247        -0.584973
 H        -5.034120         0.172639        -0.669494
 H        -4.948755         1.978857        -1.108028
 H        -2.426673         0.148197        -2.959849
 H        -2.527608         1.860669        -2.840348
