19
Iteration:  4546
 C         1.323505        -0.011236        -0.388158
 C        -0.048982        -0.019788        -0.032997
 C        -1.244376        -0.004398         0.098691
 C        -2.639393        -0.320043         0.012005
 O        -3.334226        -0.687295         1.118946
 C        -3.337837         0.913769        -0.565746
 C        -4.604952         0.766612        -1.467353
 O        -3.743753         0.795017        -2.683573
 C        -2.769735         1.489364        -1.898853
 H         1.587683        -0.996154        -0.931395
 H         1.561748         0.833317        -1.138140
 H         2.040489         0.006625         0.377882
 H        -2.666218        -1.231122        -0.740842
 H        -3.722412         0.020419         1.662096
 H        -3.131947         1.819619         0.146877
 H        -5.333902        -0.231993        -1.523019
 H        -5.239178         1.689348        -1.349527
 H        -1.760192         1.196256        -2.111700
 H        -2.928437         2.533184        -1.970074
