19
Iteration:  3865charge 0 multiplicity 1
 C         1.198386        -0.025303        -0.448147
 C        -0.115954        -0.276123        -0.084760
 C        -1.314493        -0.221695         0.107201
 C        -2.708993        -0.208184         0.228466
 O        -3.205782         0.119069         1.538587
 C        -3.367990         0.795154        -0.727827
 C        -4.517246         0.447387        -1.681636
 O        -3.796954         1.034238        -2.812596
 C        -2.628416         1.123868        -2.027913
 H         1.342658        -0.148449        -1.578291
 H         1.608017         1.003772        -0.428830
 H         2.017870        -0.403516         0.191229
 H        -3.170389        -1.243439        -0.079677
 H        -3.003261        -0.585504         2.155844
 H        -3.690940         1.592319        -0.115929
 H        -4.846154        -0.522423        -1.919667
 H        -5.493273         0.934135        -1.458657
 H        -1.879671         0.283737        -2.287654
 H        -2.087505         2.183091        -1.995724
