19
Iteration:  4577charge 0 multiplicity 1
 C         1.416136         0.074856        -0.398268
 C        -0.000556        -0.061413        -0.040311
 C        -1.183601        -0.251184         0.164457
 C        -2.690077        -0.274379         0.071717
 O        -3.428388        -0.715662         1.187858
 C        -3.365279         1.059024        -0.618896
 C        -4.603692         0.634968        -1.458172
 O        -3.828129         0.931696        -2.752164
 C        -2.735402         1.506846        -1.979575
 H         1.815276        -0.928204        -0.746361
 H         1.476997         0.654180        -1.367660
 H         2.067626         0.448876         0.370389
 H        -2.846148        -1.205057        -0.683184
 H        -3.317608        -0.060334         1.905562
 H        -3.239038         1.955643         0.121137
 H        -4.870405        -0.321967        -1.416591
 H        -5.470396         1.304475        -1.243350
 H        -1.773925         1.051535        -2.085789
 H        -2.498952         2.517290        -2.238842
