19
Iteration:  2146
 C         1.550103        -0.065048         0.423461
 C         0.103370        -0.297859         0.068719
 C        -1.156502        -0.361982        -0.122753
 C        -2.571032        -0.086291        -0.014230
 O        -2.828779         0.582024         1.273528
 C        -3.231395         0.938448        -1.029972
 C        -4.706198         0.599646        -1.288667
 O        -4.525939         0.688117        -2.807612
 C        -3.029039         0.750775        -2.560122
 H         1.619742         0.172692         1.596752
 H         1.948462        -1.037606         0.432309
 H         2.072088         0.606691        -0.243468
 H        -3.107469        -1.016678        -0.072532
 H        -2.543386        -0.123852         1.926864
 H        -3.059431         1.907473        -0.534337
 H        -5.053434        -0.435836        -0.937931
 H        -5.420156         1.466216        -1.080353
 H        -2.481281        -0.121373        -2.879628
 H        -2.524061         1.697228        -2.920090
