19
Iteration:  3001
 C         1.729224        -0.146251         0.491321
 C         0.310353        -0.081767         0.194107
 C        -0.919894        -0.047508         0.091080
 C        -2.435087        -0.171637        -0.174413
 O        -3.285244        -0.348920         0.967616
 C        -3.057724         0.903624        -1.149563
 C        -4.610305         1.107543        -1.130907
 O        -4.747087         0.876540        -2.580110
 C        -3.276068         0.783541        -2.647910
 H         2.235765         0.916679         0.266815
 H         1.864551        -0.226775         1.582510
 H         2.246382        -0.954558         0.024111
 H        -2.427608        -1.094294        -0.672143
 H        -2.863323         0.021091         1.779207
 H        -2.458243         1.874794        -0.894258
 H        -5.127381         0.331649        -0.558239
 H        -4.975540         2.141458        -0.947568
 H        -2.774487        -0.109278        -3.076886
 H        -2.821765         1.635209        -3.322129
