19
Iteration:  3762charge 0 multiplicity 1
 C         1.432081        -0.153808        -0.192914
 C         0.032171        -0.065407         0.037915
 C        -1.195659         0.071361         0.179336
 C        -2.690990        -0.145952         0.112499
 O        -3.295318        -0.199148         1.407572
 C        -3.222595         0.811876        -0.851005
 C        -4.679950         0.762759        -1.501330
 O        -4.078113         1.052670        -2.770107
 C        -2.758652         0.804263        -2.295484
 H         1.790724         0.357091        -1.021292
 H         2.025718         0.306557         0.586546
 H         1.834493        -1.125574        -0.563286
 H        -2.825206        -1.220334        -0.259285
 H        -2.601502        -0.525067         1.988339
 H        -3.207515         1.850277        -0.441139
 H        -5.084399        -0.219101        -1.465098
 H        -5.326108         1.536547        -1.152744
 H        -2.205741        -0.080511        -2.673333
 H        -2.141114         1.610339        -2.584092
