19
Iteration:  2433
 C         1.401530         0.211382         0.237095
 C         0.008040        -0.090062        -0.081124
 C        -1.207622        -0.127278        -0.129524
 C        -2.607371        -0.267532        -0.024025
 O        -2.994137        -0.142858         1.418678
 C        -3.232668         0.753936        -0.935308
 C        -4.674863         1.001615        -1.345700
 O        -4.203717         1.168147        -2.751326
 C        -2.988004         0.366555        -2.396169
 H         2.079639         0.375752        -0.674115
 H         1.659911         1.051717         0.769351
 H         1.814834        -0.697804         0.762416
 H        -2.982510        -1.225775        -0.288945
 H        -2.279541        -0.543011         1.933592
 H        -2.707348         1.727992        -0.862379
 H        -5.406985         0.109938        -1.358074
 H        -5.203293         1.878437        -0.846888
 H        -2.812745        -0.782374        -2.559845
 H        -2.099500         0.686696        -2.983396
