19
Iteration:  4831
 C         1.611517        -0.103743         0.575228
 C         0.234679        -0.072053         0.090051
 C        -0.961642        -0.083479        -0.109025
 C        -2.440502        -0.207241        -0.345856
 O        -3.215497        -0.725146         0.762605
 C        -3.090832         0.960653        -0.992214
 C        -4.628029         1.155930        -1.018866
 O        -4.652581         0.922778        -2.456243
 C        -3.121694         1.067020        -2.465625
 H         1.773733         0.593051         1.432545
 H         1.792474        -1.165442         0.866695
 H         2.271199         0.170056        -0.235233
 H        -2.552985        -1.112679        -1.133165
 H        -3.164088        -0.089889         1.512480
 H        -2.605741         1.760566        -0.419986
 H        -5.227118         0.527949        -0.488057
 H        -4.848443         2.272374        -0.660732
 H        -2.814568         0.333217        -3.185556
 H        -2.700864         2.081275        -2.934245
