19
Iteration:  4279charge 0 multiplicity 1
 C         1.559137         0.090172         0.608248
 C         0.209589        -0.026782         0.174165
 C        -0.997875        -0.318165        -0.079373
 C        -2.444893        -0.376145        -0.421922
 O        -3.201499        -0.562076         0.785661
 C        -3.007448         0.881629        -1.086736
 C        -4.581386         1.028938        -0.936154
 O        -4.574266         1.352274        -2.383759
 C        -3.250958         0.784871        -2.595961
 H         1.894939         1.080860         0.653804
 H         1.743181        -0.499488         1.467417
 H         2.367827        -0.353498        -0.110685
 H        -2.631013        -1.276742        -1.123169
 H        -2.803046        -0.095710         1.518116
 H        -2.521615         1.941111        -0.881763
 H        -5.029477         0.137982        -0.801507
 H        -5.025521         1.677331        -0.222864
 H        -3.404261        -0.227206        -3.000438
 H        -2.734609         1.355920        -3.409597
