19
Iteration:  1520
 C         1.342548         0.234794        -0.125977
 C        -0.045172        -0.051180         0.070049
 C        -1.249994        -0.253080         0.117323
 C        -2.670855        -0.314322         0.082776
 O        -3.329460        -0.155159         1.343197
 C        -3.021373         0.756592        -0.936427
 C        -4.489405         1.114981        -1.309919
 O        -4.190661         0.865458        -2.696131
 C        -2.757540         0.560201        -2.405203
 H         1.487349         0.330596        -1.239927
 H         1.756584         0.968153         0.400254
 H         1.976424        -0.632639        -0.041016
 H        -3.061913        -1.395562        -0.178488
 H        -3.055337         0.735655         1.724433
 H        -2.361216         1.555292        -0.611154
 H        -5.329267         0.529378        -0.897221
 H        -4.589262         2.230293        -1.258111
 H        -2.388314        -0.410055        -2.831078
 H        -2.132800         1.294692        -2.848452
