19
Iteration:  3738charge 0 multiplicity 1
 C         1.494034        -0.117763        -0.033467
 C         0.058524         0.015206         0.044590
 C        -1.115075        -0.140987         0.112214
 C        -2.628184        -0.186259         0.026019
 O        -3.240987        -0.187087         1.384353
 C        -3.250066         0.972647        -0.838334
 C        -4.688373         0.904482        -1.466500
 O        -4.223039         0.950185        -2.838678
 C        -2.815617         0.795388        -2.289327
 H         2.087624         0.399738        -0.678914
 H         1.999178         0.072673         0.888313
 H         1.777342        -1.115494        -0.563564
 H        -2.897573        -1.179931        -0.434516
 H        -2.827857        -0.935889         1.895233
 H        -3.186474         2.003199        -0.398516
 H        -4.934600        -0.067788        -1.321950
 H        -5.337978         1.606423        -1.002063
 H        -2.438756        -0.185516        -2.488500
 H        -2.197920         1.449907        -2.812501
