19
Iteration:  4235
 C         1.510970         0.173715         0.642456
 C         0.148936        -0.200289         0.227675
 C        -1.053478        -0.266281        -0.181227
 C        -2.482726        -0.414769        -0.394884
 O        -3.112140        -0.562137         0.867371
 C        -3.007158         0.835487        -1.153561
 C        -4.458628         1.210472        -0.924895
 O        -4.631166         1.230598        -2.378650
 C        -3.271805         0.840982        -2.694981
 H         1.493323         1.141629         1.023123
 H         1.903462        -0.602331         1.238232
 H         2.298517         0.345911        -0.208661
 H        -2.666352        -1.448343        -1.083510
 H        -2.532446        -1.073230         1.425691
 H        -2.306889         1.693613        -0.647978
 H        -5.002196         0.544585        -0.372520
 H        -4.780870         2.161431        -0.570659
 H        -3.176373        -0.166694        -3.232594
 H        -2.696714         1.708379        -3.171590
