19
Iteration:  3467charge 0 multiplicity 1
 C         1.491865        -0.082403         0.592582
 C         0.186257        -0.148867         0.020170
 C        -1.005303        -0.068772        -0.131592
 C        -2.510239        -0.250780        -0.184403
 O        -3.127977        -0.038216         1.083278
 C        -3.024095         0.841858        -1.093711
 C        -4.535205         1.104426        -1.135098
 O        -4.605793         0.830802        -2.554657
 C        -3.186339         0.709630        -2.652418
 H         1.463862        -0.240706         1.798689
 H         2.264945        -0.745465         0.159252
 H         2.084149         0.784360         0.469487
 H        -2.871644        -1.350628        -0.621259
 H        -2.921292        -0.797817         1.683241
 H        -2.394470         1.689640        -0.867341
 H        -5.298009         0.469639        -0.583602
 H        -4.748098         2.111137        -0.706329
 H        -2.857559        -0.239868        -3.069966
 H        -2.707177         1.538865        -3.244172
