19
Iteration:  4930
 C         1.468939        -0.192144         0.636104
 C         0.165080        -0.255208        -0.030534
 C        -1.021296        -0.114264        -0.179629
 C        -2.385190        -0.181928        -0.409498
 O        -3.121634        -0.475260         0.894543
 C        -3.072776         1.172899        -0.898910
 C        -4.601684         0.871912        -1.032066
 O        -4.524282         0.726567        -2.502843
 C        -3.223697         1.388348        -2.466307
 H         1.930134         0.798349         0.510900
 H         1.195898        -0.446487         1.668716
 H         2.102233        -0.932144         0.093816
 H        -2.581030        -1.037214        -1.099703
 H        -2.422645        -0.858189         1.421387
 H        -2.623468         2.000700        -0.373868
 H        -4.889138         0.035480        -0.573882
 H        -5.116463         1.880094        -0.974863
 H        -2.620224         0.921366        -3.199436
 H        -3.311684         2.483882        -2.708147
