19
Iteration:   126charge 0 multiplicity 1
 C         1.512668        -0.435434         0.393744
 C         0.179044        -0.317665         0.042904
 C        -0.991545        -0.027720        -0.068470
 C        -2.473266         0.157454        -0.006102
 O        -2.932926         0.593914         1.376810
 C        -3.415482         0.892038        -0.992972
 C        -4.535312        -0.024122        -1.548600
 O        -4.570023         0.794688        -2.783687
 C        -3.145503         1.165068        -2.429504
 H         2.020842         0.402999         1.048676
 H         1.671151        -1.337223         0.929972
 H         2.064999        -0.535144        -0.551677
 H        -2.880168        -0.889221         0.026097
 H        -2.282625         1.278544         1.676884
 H        -3.751732         1.835159        -0.488482
 H        -4.208380        -1.123053        -1.606869
 H        -5.547937        -0.135718        -1.012485
 H        -2.448366         0.380151        -2.858710
 H        -2.874959         2.169222        -2.876955
