19
Iteration:   913
 C         1.273016        -0.198426        -0.277766
 C        -0.155447        -0.262110        -0.219380
 C        -1.308733        -0.291283         0.005283
 C        -2.780598        -0.074277         0.200861
 O        -2.852893         0.457917         1.645779
 C        -3.556616         0.816510        -0.793185
 C        -4.366660        -0.028806        -1.743187
 O        -3.737330         0.756747        -2.876528
 C        -2.971484         1.555970        -1.952503
 H         1.626304         0.377858         0.636972
 H         1.889339        -1.076602        -0.228266
 H         1.646097         0.360389        -1.140057
 H        -3.302823        -1.016146         0.276001
 H        -3.813516         0.316761         1.893735
 H        -4.200248         1.450002        -0.173380
 H        -4.129880        -1.081983        -1.752524
 H        -5.488696         0.168793        -1.867605
 H        -1.870566         1.362021        -2.086892
 H        -3.199398         2.659154        -2.031121
