19
Iteration:  3207
 C         1.435675        -0.076909        -0.503275
 C        -0.069125        -0.262196        -0.228571
 C        -1.254221        -0.198089         0.173849
 C        -2.788719        -0.168124         0.300280
 O        -3.380214         0.008607         1.627636
 C        -3.307540         0.986630        -0.643116
 C        -4.630875         0.626776        -1.710774
 O        -3.765836         0.627785        -2.889801
 C        -2.677953         1.229129        -2.040234
 H         1.604059        -0.713485        -1.293471
 H         1.384693         1.033131        -0.662154
 H         2.198866        -0.258349         0.353587
 H        -3.045041        -1.075619        -0.061076
 H        -2.592868         0.082496         2.167670
 H        -3.566427         1.923708        -0.074256
 H        -5.198145        -0.312599        -1.496488
 H        -5.271000         1.531465        -1.866826
 H        -1.767331         0.837991        -2.309764
 H        -2.604376         2.266927        -2.257359
