19
Iteration:  3783
 C         1.335957        -0.119827        -0.316353
 C        -0.046789        -0.103842         0.029160
 C        -1.202349         0.066241         0.211897
 C        -2.648519        -0.261899         0.137299
 O        -3.341534        -0.102035         1.378238
 C        -3.204043         0.809962        -0.779155
 C        -4.621794         0.581493        -1.475880
 O        -4.040826         1.134777        -2.804868
 C        -2.663408         0.897050        -2.256265
 H         1.574599         0.208833        -1.271767
 H         1.900649         0.482866         0.393724
 H         1.746502        -1.196867        -0.526627
 H        -2.763215        -1.284667        -0.163922
 H        -2.786455        -0.121741         2.197922
 H        -3.192507         1.802149        -0.229865
 H        -4.866963        -0.418742        -1.497438
 H        -5.393038         1.273354        -1.301004
 H        -2.297386        -0.114704        -2.476446
 H        -1.910187         1.587781        -2.427615
