19
Iteration:  3259charge 0 multiplicity 1
 C         1.142942        -0.184217        -0.674129
 C        -0.149851         0.131773         0.008568
 C        -1.325186        -0.063901         0.243896
 C        -2.799513        -0.125683         0.243841
 O        -3.394501        -0.152611         1.550537
 C        -3.172657         0.919218        -0.730466
 C        -4.451597         0.549002        -1.541148
 O        -3.765220         0.833069        -2.802930
 C        -2.512826         1.073021        -2.117553
 H         1.015134        -1.286119        -1.068940
 H         1.229941         0.561661        -1.475861
 H         1.896030        -0.144586         0.034585
 H        -3.097191        -1.224624        -0.258346
 H        -2.800442         0.381479         2.069229
 H        -3.388398         1.867153        -0.288251
 H        -4.637267        -0.532767        -1.453496
 H        -5.441083         0.964962        -1.338872
 H        -1.805349         0.133682        -2.443693
 H        -1.898741         1.965031        -2.442681
