19
Iteration:   685charge 0 multiplicity 1
 C         1.333914         0.341492         0.391407
 C        -0.015832        -0.221035        -0.049702
 C        -1.197577        -0.520922        -0.217798
 C        -2.660577        -0.174325        -0.126056
 O        -3.071500         0.038839         1.246696
 C        -2.904517         1.011946        -1.089058
 C        -4.442720         1.299905        -1.291778
 O        -4.496562         0.355759        -2.381319
 C        -2.913220         0.525862        -2.540853
 H         1.737208        -0.097217         1.415420
 H         2.040601         0.336396        -0.384673
 H         1.192911         1.406137         0.705317
 H        -3.185238        -1.091231        -0.417502
 H        -2.789944         0.950548         1.498969
 H        -2.237465         1.899772        -0.805645
 H        -5.066705         1.003163        -0.459941
 H        -4.630928         2.306323        -1.646898
 H        -2.295279        -0.324964        -2.817038
 H        -2.789414         1.266916        -3.371513
