19
Iteration:  4807charge 0 multiplicity 1
 C         1.673111         0.002186         0.489371
 C         0.196192        -0.090351         0.199929
 C        -0.999468        -0.280600        -0.085656
 C        -2.441436        -0.331006        -0.319752
 O        -3.223041        -0.686932         0.817199
 C        -3.036666         1.095176        -0.973868
 C        -4.632535         1.081678        -1.055497
 O        -4.649216         1.062910        -2.490527
 C        -3.129979         1.038649        -2.495867
 H         1.894895         0.474292         1.502609
 H         1.972613        -1.109295         0.519574
 H         2.201494         0.501242        -0.267440
 H        -2.771012        -1.039349        -1.205914
 H        -3.214369         0.082153         1.386549
 H        -2.603717         1.782769        -0.333271
 H        -5.055095         0.204745        -0.568040
 H        -5.300061         2.031315        -0.687311
 H        -2.870932         0.137277        -3.049396
 H        -2.570391         1.873774        -3.162516
