19
Iteration:  2494charge 0 multiplicity 1
 C         1.449447         0.012896        -0.216558
 C        -0.021130         0.003524         0.140062
 C        -1.238187        -0.041992         0.156772
 C        -2.630270        -0.238292         0.069764
 O        -3.285598        -0.063455         1.317776
 C        -3.145980         0.805482        -0.868607
 C        -4.611772         0.695465        -1.331452
 O        -4.138540         0.967807        -2.728371
 C        -2.754407         0.768816        -2.374959
 H         1.466162        -0.477967        -1.223958
 H         1.805351         1.146092        -0.313591
 H         2.052413        -0.607668         0.406229
 H        -2.908946        -1.333555        -0.380733
 H        -2.867653        -0.697603         1.904298
 H        -2.976618         1.814956        -0.404102
 H        -5.117689        -0.284056        -1.476971
 H        -5.280160         1.484992        -0.997012
 H        -2.315994        -0.129677        -2.655046
 H        -2.357170         1.711542        -2.706470
