19
Iteration:  2779
 C         1.532393        -0.119689         0.240964
 C         0.088786         0.066933         0.144846
 C        -1.103499         0.114792         0.072280
 C        -2.488810        -0.192130        -0.094526
 O        -3.181923        -0.520582         1.077937
 C        -3.125961         0.895344        -0.967555
 C        -4.572935         0.995432        -1.221913
 O        -4.419275         1.154515        -2.629209
 C        -3.084211         0.598488        -2.522357
 H         1.992748         0.059176         1.199688
 H         1.805957        -1.116887        -0.233883
 H         1.977028         0.789751        -0.230484
 H        -2.502520        -1.094415        -0.781233
 H        -2.616970        -0.360361         1.888230
 H        -2.766135         1.926562        -0.881959
 H        -5.173017         0.128535        -0.900573
 H        -5.149459         1.794297        -0.746737
 H        -3.237101        -0.487429        -2.770598
 H        -2.380410         1.070662        -3.070970
