19
Iteration:  4729charge 0 multiplicity 1
 C         1.564503         0.192617         0.298667
 C         0.109633        -0.048844        -0.002265
 C        -1.049738        -0.465186        -0.098316
 C        -2.542887        -0.477048        -0.184924
 O        -3.176363        -0.423388         1.127675
 C        -3.196152         0.800022        -0.911467
 C        -4.695860         0.867257        -1.269020
 O        -4.356306         1.453678        -2.535498
 C        -2.948453         0.943733        -2.406674
 H         1.679643        -0.054400         1.369731
 H         2.226034        -0.376956        -0.401285
 H         1.779227         1.248651         0.067860
 H        -2.917899        -1.444224        -0.877689
 H        -3.188813        -1.309946         1.509695
 H        -2.984400         1.620704        -0.251924
 H        -5.100830        -0.038862        -1.406308
 H        -5.458359         1.455214        -0.628051
 H        -2.779290        -0.076683        -2.780391
 H        -2.336771         1.908452        -2.717259
