19
Iteration:  1926charge 0 multiplicity 1
 C         1.287832        -0.014375        -0.550924
 C        -0.139280        -0.045098        -0.115725
 C        -1.300228        -0.125403         0.272303
 C        -2.808203        -0.028309         0.294134
 O        -3.278287         0.273218         1.654610
 C        -3.153703         1.024449        -0.829962
 C        -4.525573         1.093936        -1.687475
 O        -3.951217         0.347448        -2.789571
 C        -2.609397         0.375209        -2.169284
 H         1.748868        -1.123695        -0.414986
 H         1.443110         0.218733        -1.566086
 H         1.846815         0.660805         0.111470
 H        -3.224087        -0.940495         0.133264
 H        -2.462351         0.111729         2.206648
 H        -2.730435         1.972009        -0.496869
 H        -5.454770         0.502513        -1.247413
 H        -5.047116         2.035191        -1.836793
 H        -2.242388        -0.699208        -2.104217
 H        -1.937262         1.121431        -2.694527
