19
Iteration:  1312
 C         1.246334        -0.374695        -0.133932
 C        -0.218869        -0.345655        -0.223853
 C        -1.430452        -0.371501        -0.238903
 C        -2.778807        -0.143017         0.313322
 O        -2.657111         0.732961         1.458098
 C        -3.788825         0.624727        -0.690312
 C        -4.215798        -0.066701        -2.012809
 O        -3.502807         0.862028        -2.844745
 C        -3.283841         1.749708        -1.659726
 H         1.562423         0.646016        -0.667862
 H         1.624127        -0.446182         0.877225
 H         1.719617        -1.220279        -0.747263
 H        -3.215254        -1.152009         0.566178
 H        -2.088683         0.288411         2.096097
 H        -4.679401         0.795326        -0.045421
 H        -3.923167        -1.092451        -2.197535
 H        -5.282743         0.158419        -2.210422
 H        -2.286307         2.165507        -1.507727
 H        -3.910211         2.639634        -1.754524
