19
Iteration:  1042
 C         1.104463        -0.543514        -0.623501
 C        -0.316108        -0.412824        -0.387208
 C        -1.452908        -0.267449         0.119463
 C        -2.829594        -0.012748         0.462301
 O        -2.727885         0.956850         1.468153
 C        -3.901502         0.416636        -0.740319
 C        -3.719409        -0.239863        -2.096787
 O        -3.186453         0.978653        -2.650685
 C        -3.579346         1.718457        -1.494218
 H         1.584394         0.290217        -0.180768
 H         1.552997        -1.513180        -0.095085
 H         1.466528        -0.357226        -1.654138
 H        -3.237354        -0.932172         0.908641
 H        -3.497032         1.525591         1.635213
 H        -4.890391         0.286689        -0.331049
 H        -2.969072        -1.079527        -2.289516
 H        -4.600539        -0.514372        -2.640486
 H        -2.708377         2.249542        -1.080175
 H        -4.407991         2.357057        -1.744748
