19
Iteration:  4492charge 0 multiplicity 1
 C         1.457381        -0.045774        -0.223678
 C        -0.049000        -0.018542        -0.108566
 C        -1.252552        -0.114500        -0.032421
 C        -2.679918        -0.152331        -0.080973
 O        -3.327204        -0.743887         1.187274
 C        -3.434471         1.113899        -0.588617
 C        -4.589868         0.745941        -1.407950
 O        -3.859642         0.738779        -2.710473
 C        -2.731823         1.516033        -1.958809
 H         1.753143        -0.701742        -1.108545
 H         1.944270         0.973966        -0.137134
 H         1.885510        -0.471408         0.644445
 H        -2.847304        -0.878829        -0.787347
 H        -2.618678        -0.767218         1.850346
 H        -3.423140         1.943582         0.118436
 H        -4.891926        -0.435932        -1.247178
 H        -5.448133         1.396338        -1.271541
 H        -1.808162         0.968690        -2.121909
 H        -2.904587         2.657035        -2.285089
