19
Iteration:   262
 C         1.268829        -0.091049        -0.519036
 C        -0.181055        -0.121750        -0.167090
 C        -1.314894        -0.182529         0.213958
 C        -2.714995         0.063059         0.422223
 O        -3.238484         0.535286         1.593671
 C        -3.303539         0.931916        -0.754292
 C        -4.489143         0.337319        -1.567178
 O        -3.890358         0.515069        -2.885276
 C        -2.579932         0.877262        -2.245875
 H         1.638671         0.550294        -1.208659
 H         1.905552         0.176316         0.454351
 H         1.502916        -1.071203        -0.944192
 H        -3.209132        -0.957646         0.267326
 H        -2.927652         0.107601         2.402139
 H        -3.515459         1.958536        -0.522041
 H        -4.945725        -0.707804        -1.499911
 H        -5.447107         0.947701        -1.303115
 H        -1.858037        -0.026851        -2.325540
 H        -2.012914         1.616507        -2.764885
