19
Iteration:   204
 C         1.405565        -0.301509        -0.075556
 C        -0.043542        -0.047149         0.030699
 C        -1.237570        -0.088788        -0.098974
 C        -2.654952        -0.026968         0.180670
 O        -2.881683         0.671783         1.555413
 C        -3.514946         0.799839        -0.771986
 C        -4.666960         0.200779        -1.690811
 O        -4.066250         0.604251        -2.950827
 C        -2.877619         1.036503        -2.165329
 H         1.993837         0.625341        -0.331973
 H         1.835404        -0.730440         0.841629
 H         1.633658        -1.124244        -0.781045
 H        -3.038645        -1.080016         0.184925
 H        -2.228497         0.301525         2.163808
 H        -3.688830         1.791615        -0.257129
 H        -4.643849        -0.909533        -1.665599
 H        -5.651920         0.730107        -1.440288
 H        -2.141112         0.241925        -2.346555
 H        -2.530146         2.042881        -2.474347
