19
Iteration:   339
 C         1.159280         0.003703        -0.784471
 C        -0.119421        -0.017152        -0.041410
 C        -1.224602         0.036966         0.484031
 C        -2.731410        -0.008554         0.346744
 O        -3.556245         0.231464         1.512140
 C        -3.012128         1.005919        -0.832674
 C        -4.412099         0.825788        -1.483427
 O        -3.933761         0.473507        -2.800878
 C        -2.532219         0.428197        -2.214223
 H         1.224481         0.141108        -1.815252
 H         1.773377         0.884195        -0.288079
 H         1.675300        -0.960775        -0.575348
 H        -2.983060        -1.020154        -0.050796
 H        -3.395773        -0.484327         2.194162
 H        -2.644757         1.977915        -0.665558
 H        -4.847887        -0.018885        -0.917513
 H        -5.082012         1.728700        -1.560152
 H        -2.261918        -0.658984        -2.088814
 H        -1.862228         0.998079        -2.817295
