19
Iteration:  2558charge 0 multiplicity 1
 C         1.424572        -0.139364        -0.397078
 C        -0.038524        -0.199528        -0.082407
 C        -1.165568         0.001064         0.316266
 C        -2.637646        -0.139907         0.158949
 O        -3.488102         0.028234         1.261087
 C        -3.150455         0.992311        -0.729497
 C        -4.520684         0.488877        -1.404866
 O        -4.000162         0.634200        -2.782774
 C        -2.786813         1.230883        -2.198680
 H         1.734269        -0.922382        -1.006683
 H         1.619115         0.842650        -0.876444
 H         2.160601         0.138469         0.358983
 H        -2.724667        -1.065015        -0.342190
 H        -3.349701        -0.642081         1.989092
 H        -3.376084         1.814205        -0.064062
 H        -4.695010        -0.625823        -1.199612
 H        -5.332119         1.127219        -1.034890
 H        -1.629741         0.762580        -2.461486
 H        -2.808757         2.315198        -2.491276
