19
Iteration:  2785charge 0 multiplicity 1
 C         1.518000        -0.074641         0.296243
 C         0.113720         0.029999         0.102770
 C        -1.097559         0.134184         0.063563
 C        -2.472860        -0.243632        -0.107487
 O        -3.196808        -0.508766         1.086616
 C        -3.090825         0.850055        -1.001674
 C        -4.612655         1.005850        -1.164491
 O        -4.420888         1.195386        -2.601781
 C        -3.119419         0.580974        -2.575798
 H         1.968539         0.061328         1.309780
 H         1.854165        -1.009356        -0.118929
 H         1.907996         0.757822        -0.402522
 H        -2.370493        -1.234499        -0.598071
 H        -2.645341        -0.431252         1.866848
 H        -2.734986         1.873288        -0.764261
 H        -5.274495         0.171852        -0.831403
 H        -5.039324         2.042704        -0.962171
 H        -3.068572        -0.505964        -2.802380
 H        -2.297798         1.057852        -3.338427
