19
Iteration:  3212charge 0 multiplicity 1
 C         1.400744        -0.058459        -0.531943
 C        -0.086138        -0.249767        -0.208510
 C        -1.233730        -0.183940         0.204125
 C        -2.802918        -0.142056         0.289318
 O        -3.382484         0.000541         1.610263
 C        -3.375947         0.984302        -0.677837
 C        -4.580719         0.614330        -1.696294
 O        -3.754823         0.660555        -2.846662
 C        -2.648992         1.178654        -2.054427
 H         1.666725        -0.816635        -1.403967
 H         1.521352         0.979190        -0.892039
 H         2.047180        -0.315296         0.345260
 H        -2.952658        -1.259034        -0.198593
 H        -2.651161         0.139802         2.258705
 H        -3.620114         1.870585        -0.073823
 H        -5.222782        -0.253986        -1.499226
 H        -5.285838         1.456877        -1.748910
 H        -1.558205         0.730447        -2.216271
 H        -2.524455         2.321922        -2.197521
