19
Iteration:  2233
 C         1.574005        -0.447066         0.589246
 C         0.221760         0.151452         0.166642
 C        -0.999450         0.216095        -0.028411
 C        -2.393455         0.048810        -0.238734
 O        -3.181883        -0.060564         1.026791
 C        -3.040632         1.026900        -1.161259
 C        -4.554709         0.983609        -1.156070
 O        -4.705041         0.668531        -2.587196
 C        -3.213687         0.492800        -2.607853
 H         2.294576         0.283825         1.174296
 H         1.528236        -1.305501         1.179968
 H         2.184588        -0.651543        -0.263329
 H        -2.457089        -1.051366        -0.578813
 H        -2.477246        -0.106566         1.743383
 H        -2.673976         2.065447        -1.248887
 H        -4.984591         0.213987        -0.451905
 H        -5.199882         1.801723        -0.737607
 H        -3.119147        -0.553636        -2.694226
 H        -2.757549         1.074060        -3.455683
