19
Iteration:  1828charge 0 multiplicity 1
 C         1.498599        -0.159676         0.174214
 C         0.053067        -0.380335         0.228930
 C        -1.099607        -0.154853         0.098404
 C        -2.559025        -0.008576         0.018697
 O        -2.970951         0.644281         1.270120
 C        -3.173712         0.857560        -1.040128
 C        -4.635687         0.659880        -1.331212
 O        -4.471017         0.546748        -2.750645
 C        -2.985249         0.760136        -2.620358
 H         2.128774        -1.093066        -0.122048
 H         1.626738         0.733259        -0.351204
 H         1.924173        -0.006707         1.178675
 H        -3.059513        -1.126573        -0.152298
 H        -2.924512         0.025650         2.058119
 H        -2.995072         1.913526        -0.858134
 H        -5.092011        -0.348888        -0.995401
 H        -5.262026         1.447171        -0.969740
 H        -2.387066        -0.079337        -2.974080
 H        -2.780734         1.756411        -2.997430
