19
Iteration:  4562
 C         1.424763         0.010240        -0.458387
 C         0.001318        -0.031062         0.013140
 C        -1.208433        -0.121719         0.151421
 C        -2.704366        -0.281615        -0.040708
 O        -3.410549        -0.738930         1.222463
 C        -3.330760         0.991608        -0.614189
 C        -4.573387         0.727962        -1.487569
 O        -3.822109         0.854566        -2.685637
 C        -2.709550         1.488439        -1.936205
 H         1.694824        -0.938847        -0.828443
 H         1.541467         0.793074        -1.155364
 H         2.096799         0.364543         0.401238
 H        -2.900707        -1.026876        -0.699937
 H        -3.617499         0.100572         1.642526
 H        -3.635533         1.579089         0.150916
 H        -5.018949        -0.270799        -1.329627
 H        -5.343936         1.507096        -1.514353
 H        -1.718592         1.091716        -2.344279
 H        -2.872650         2.676896        -1.960790
