19
Iteration:  2248charge 0 multiplicity 1
 C         1.448289        -0.364525         0.561613
 C         0.235064         0.094281         0.165877
 C        -0.952000         0.341133         0.025678
 C        -2.389764        -0.030205        -0.201991
 O        -3.064503        -0.152882         1.025794
 C        -3.061243         0.988752        -1.191425
 C        -4.630651         1.100382        -1.177238
 O        -4.652187         0.696374        -2.560673
 C        -3.278522         0.423981        -2.617876
 H         2.084332         0.460705         1.025350
 H         1.109400        -1.273139         1.192399
 H         2.092573        -0.935034        -0.207908
 H        -2.385644        -0.982718        -0.641472
 H        -2.389212        -0.186976         1.705261
 H        -2.538577         1.952828        -0.996348
 H        -5.165999         0.324766        -0.540058
 H        -4.989229         2.170507        -1.085272
 H        -2.812549        -0.592580        -2.748655
 H        -2.716103         0.887935        -3.454122
