19
Iteration:  1756
 C         1.419666        -0.542697         0.591735
 C         0.223527         0.132858         0.169627
 C        -0.961317         0.424598        -0.037560
 C        -2.379751         0.079404        -0.202794
 O        -2.947573         0.203293         1.103706
 C        -3.110351         0.904167        -1.188505
 C        -4.636403         0.708806        -1.193763
 O        -4.700519         0.729669        -2.637884
 C        -3.223070         0.417617        -2.609447
 H         1.469750        -1.432304         0.049598
 H         2.397964         0.056296         0.696098
 H         1.201929        -1.026741         1.556935
 H        -2.404501        -1.036207        -0.482641
 H        -2.211110         0.552410         1.644466
 H        -2.958277         2.019428        -1.147140
 H        -4.831510        -0.284462        -0.753688
 H        -5.283220         1.580604        -0.776554
 H        -3.086126        -0.721950        -2.729441
 H        -2.631621         1.049551        -3.398403
