19
Iteration:  1780charge 0 multiplicity 1
 C         1.607849        -0.493612         0.521813
 C         0.275500         0.028324         0.179785
 C        -0.872062         0.137079        -0.073697
 C        -2.433216         0.146810        -0.098997
 O        -3.137831         0.363165         1.157359
 C        -3.141940         0.958397        -1.134719
 C        -4.735628         0.615163        -1.198994
 O        -4.635747         0.695545        -2.698129
 C        -3.185005         0.547694        -2.640612
 H         1.639149        -1.391584         0.003172
 H         2.457489         0.215751         0.332339
 H         1.660316        -0.869313         1.548533
 H        -2.700610        -0.969134        -0.366959
 H        -2.441640         0.486702         1.783759
 H        -3.083401         2.049101        -0.987378
 H        -4.896523        -0.467956        -0.889164
 H        -5.560158         1.303512        -0.816646
 H        -2.986191        -0.576057        -2.692625
 H        -2.616250         1.182843        -3.452481
