19
Iteration:  4011charge 0 multiplicity 1
 C         1.431118        -0.346386        -0.089380
 C         0.013104        -0.124882         0.003806
 C        -1.214165         0.139781        -0.006937
 C        -2.634330        -0.158677        -0.027689
 O        -3.173967        -0.169230         1.336298
 C        -3.290187         0.977364        -0.716071
 C        -4.609530         0.588519        -1.473005
 O        -4.041313         0.761943        -2.793014
 C        -2.892680         1.355848        -2.159297
 H         1.691044        -1.487005         0.061912
 H         1.958326        -0.157437        -1.098257
 H         1.963871         0.294978         0.554728
 H        -2.835680        -1.112543        -0.468560
 H        -2.885166        -0.995959         1.816056
 H        -3.562802         1.820570        -0.043410
 H        -4.732341        -0.437232        -1.392362
 H        -5.539895         1.205477        -1.200695
 H        -1.934860         0.877489        -2.562872
 H        -3.026146         2.493175        -2.262325
