19
Iteration:  2726
 C         1.605765        -0.153856         0.071150
 C         0.118943        -0.114652         0.106653
 C        -1.110174         0.032780         0.123780
 C        -2.535275        -0.223287        -0.045296
 O        -3.249172        -0.291947         1.244662
 C        -3.170273         0.884414        -0.941622
 C        -4.701154         0.723161        -1.264316
 O        -4.366829         0.917296        -2.773850
 C        -2.917853         1.087258        -2.409326
 H         2.070664        -0.692228         0.952328
 H         1.848303        -0.760901        -0.837032
 H         2.061747         0.746185        -0.126746
 H        -2.774104        -1.218304        -0.588941
 H        -3.127550         0.579281         1.734251
 H        -2.959931         1.865040        -0.398325
 H        -5.171720        -0.207820        -0.874695
 H        -5.358196         1.601616        -1.016073
 H        -2.274534         0.291943        -2.968240
 H        -2.656491         2.111223        -2.627908
