19
Iteration:  2419charge 0 multiplicity 1
 C         1.387254         0.214040         0.265044
 C        -0.010575        -0.099036         0.103842
 C        -1.180535        -0.200499        -0.225354
 C        -2.630922        -0.338441         0.009813
 O        -2.936611        -0.075304         1.354763
 C        -3.150118         0.736205        -0.981033
 C        -4.609548         0.999632        -1.308217
 O        -4.263868         1.134154        -2.735272
 C        -3.043607         0.437648        -2.482971
 H         1.733423         0.452677        -0.808807
 H         1.331998         1.035455         1.034267
 H         2.038998        -0.486890         0.725993
 H        -2.975436        -1.302144        -0.272113
 H        -2.178089        -0.513561         1.832550
 H        -2.685653         1.696047        -0.635192
 H        -5.293085         0.194465        -1.051779
 H        -5.073539         1.946334        -1.018617
 H        -3.391675        -0.648300        -2.823763
 H        -2.152428         0.855223        -2.996964
