19
Iteration:   744
 C         1.350101         0.236666        -0.177427
 C        -0.058463        -0.023918         0.061725
 C        -1.247773        -0.296704         0.073160
 C        -2.648879        -0.243642         0.114741
 O        -3.319716         0.043050         1.374726
 C        -3.022591         0.859224        -0.861207
 C        -4.546461         1.081874        -1.372190
 O        -4.128315         0.610268        -2.747598
 C        -2.801864         0.510205        -2.351474
 H         2.027563         0.008679         0.540404
 H         1.799867        -0.291027        -1.107092
 H         1.393367         1.292858        -0.440332
 H        -3.098252        -1.149302        -0.254991
 H        -2.627710         0.078600         2.098348
 H        -2.522132         1.736827        -0.452408
 H        -5.445341         0.570622        -0.980068
 H        -4.759307         2.153030        -1.421785
 H        -2.341181        -0.492206        -2.469337
 H        -2.266332         1.299948        -2.913919
