19
Iteration:  1986charge 0 multiplicity 1
 C         1.125498        -0.093202        -0.732740
 C        -0.115921        -0.034612         0.042876
 C        -1.184233        -0.030083         0.638268
 C        -2.633259        -0.007828         0.312753
 O        -3.633369         0.317939         1.332103
 C        -2.870244         0.874857        -0.881155
 C        -4.369073         0.806350        -1.276276
 O        -4.041811         0.514641        -2.711536
 C        -2.606653         0.465954        -2.428042
 H         1.730207        -0.913457        -0.356974
 H         0.984142        -0.302522        -1.886625
 H         1.810542         0.799893        -0.655115
 H        -2.735648        -1.003885         0.001312
 H        -3.494054         1.287147         1.556754
 H        -2.546513         1.886014        -0.547935
 H        -4.845572        -0.066577        -0.950840
 H        -4.840488         1.790350        -1.200190
 H        -2.191521        -0.532155        -2.515301
 H        -1.942431         1.112996        -2.986594
