19
Iteration:  3875charge 0 multiplicity 1
 C         1.289101         0.016294        -0.471509
 C        -0.073590        -0.262346        -0.091692
 C        -1.313356        -0.256157         0.055493
 C        -2.788638        -0.229852         0.235732
 O        -3.198640         0.125860         1.582532
 C        -3.424788         0.826889        -0.669958
 C        -4.526615         0.468145        -1.749224
 O        -3.798845         1.015657        -2.841814
 C        -2.629971         1.120604        -1.969681
 H         1.471965        -0.519860        -1.474691
 H         1.331778         1.117665        -0.385295
 H         1.947775        -0.646204         0.249141
 H        -3.165874        -1.261672        -0.025305
 H        -2.937247        -0.641648         2.084863
 H        -3.677976         1.648681        -0.041550
 H        -4.632911        -0.578221        -1.705565
 H        -5.413847         1.091388        -1.712639
 H        -1.913681         0.327091        -2.311271
 H        -2.139263         2.166046        -2.116356
