19
Iteration:  2674
 C         1.514899        -0.105226         0.001306
 C         0.029733        -0.227603        -0.086903
 C        -1.190182        -0.337276        -0.124004
 C        -2.683376        -0.166419        -0.027066
 O        -3.176997        -0.063236         1.338636
 C        -3.358554         1.124842        -0.744266
 C        -4.633802         0.576358        -1.408297
 O        -4.032060         0.625376        -2.697663
 C        -2.883869         1.366040        -2.239287
 H         1.787478        -1.002345         0.642178
 H         2.129771        -0.130305        -0.876740
 H         1.752873         0.915146         0.344163
 H        -3.223212        -0.943484        -0.435966
 H        -2.705825         0.641428         1.864716
 H        -3.469915         1.921853         0.010931
 H        -4.726976        -0.449118        -1.095106
 H        -5.564654         1.171946        -1.388524
 H        -1.961029         0.897633        -2.447516
 H        -2.919850         2.357409        -2.858674
