19
Iteration:  3167charge 0 multiplicity 1
 C         1.293321        -0.118545        -0.225355
 C        -0.152219        -0.173461        -0.035936
 C        -1.353239        -0.256727        -0.011638
 C        -2.799375        -0.169756         0.019401
 O        -3.048837         0.077000         1.391563
 C        -3.320896         1.023738        -0.713337
 C        -4.582141         0.600043        -1.512600
 O        -3.825417         0.537150        -2.759742
 C        -2.750160         1.325098        -2.098539
 H         1.590446        -0.327240        -1.278620
 H         1.630917         0.928439        -0.165450
 H         1.924258        -0.776263         0.456857
 H        -3.453279        -1.112882        -0.353656
 H        -2.277475        -0.141916         1.980722
 H        -3.262980         1.820245         0.097044
 H        -5.015303        -0.400042        -1.300436
 H        -5.421329         1.286415        -1.459972
 H        -1.756482         0.829537        -2.294251
 H        -2.698428         2.452174        -2.379396
