19
Iteration:  2270charge 0 multiplicity 1
 C         1.537150        -0.310625         0.615085
 C         0.179212         0.055349         0.202014
 C        -0.970657         0.381835        -0.028031
 C        -2.427377        -0.085101        -0.235479
 O        -2.980648        -0.242668         1.099150
 C        -3.121220         0.919874        -1.137247
 C        -4.618612         1.224740        -1.267417
 O        -4.744093         0.732032        -2.613029
 C        -3.258990         0.395203        -2.577277
 H         2.181542         0.618520         0.777294
 H         1.463353        -1.056119         1.502102
 H         2.002416        -0.990301        -0.211646
 H        -2.456882        -0.922356        -0.844114
 H        -2.309523        -0.423983         1.806105
 H        -2.399838         1.751331        -1.070888
 H        -5.243656         0.714724        -0.474620
 H        -4.658022         2.337809        -1.412753
 H        -2.954079        -0.621661        -2.947251
 H        -2.592887         0.950120        -3.291933
