19
Iteration:   882
 C         1.331545        -0.231035        -0.419692
 C        -0.082356        -0.280491         0.026241
 C        -1.225819         0.058591         0.070218
 C        -2.764191        -0.048366         0.240633
 O        -3.005995         0.276290         1.740521
 C        -3.523770         0.861838        -0.834728
 C        -4.393931         0.029580        -1.769662
 O        -3.886846         0.842969        -2.950183
 C        -2.843610         1.333533        -2.065743
 H         2.043004         0.361354         0.310768
 H         1.739271        -1.132473        -0.642259
 H         1.246869         0.426758        -1.286795
 H        -3.073081        -1.080376         0.210495
 H        -3.945144         0.253449         1.879428
 H        -4.102016         1.563035        -0.173144
 H        -4.204394        -1.078676        -1.792444
 H        -5.508514         0.164659        -1.611808
 H        -1.956735         0.673761        -2.046002
 H        -2.621165         2.427574        -1.979538
