19
Iteration:   912
 C         1.272952        -0.197122        -0.286739
 C        -0.150166        -0.265809        -0.206311
 C        -1.307805        -0.285069         0.009742
 C        -2.774326        -0.064863         0.200541
 O        -2.855789         0.450271         1.647458
 C        -3.569110         0.825749        -0.789213
 C        -4.367614        -0.025337        -1.749753
 O        -3.741387         0.757515        -2.873549
 C        -2.963271         1.548205        -1.966410
 H         1.596644         0.364186         0.612268
 H         1.929907        -1.107537        -0.221122
 H         1.646010         0.384135        -1.143315
 H        -3.294152        -1.042772         0.282992
 H        -3.826090         0.313860         1.885252
 H        -4.189875         1.445005        -0.158358
 H        -4.118890        -1.069408        -1.764782
 H        -5.494397         0.148728        -1.854289
 H        -1.865593         1.339136        -2.082092
 H        -3.202172         2.637484        -2.005098
