19
Iteration:  2634charge 0 multiplicity 1
 C         1.322116        -0.167451        -0.116369
 C        -0.126407        -0.159682        -0.081169
 C        -1.311476         0.080082        -0.119456
 C        -2.763966        -0.181632         0.060075
 O        -2.925422        -0.140647         1.477943
 C        -3.457022         1.032859        -0.703355
 C        -4.671325         0.736743        -1.622124
 O        -3.841784         0.457886        -2.749813
 C        -2.819329         1.292774        -2.127304
 H         1.612781        -1.176622         0.150865
 H         1.721777         0.058602        -1.120509
 H         1.926641         0.555896         0.633209
 H        -2.861363        -1.311467        -0.290540
 H        -2.045485        -0.303376         1.799086
 H        -3.547060         1.841199         0.002051
 H        -5.436357        -0.064164        -1.342054
 H        -5.163127         1.695558        -1.893203
 H        -1.762540         0.826557        -2.270780
 H        -2.945386         2.343482        -2.324735
