19
Iteration:  2669charge 0 multiplicity 1
 C         1.482546        -0.076822        -0.018321
 C         0.012709        -0.251580        -0.078547
 C        -1.226824        -0.294942        -0.152681
 C        -2.664145        -0.145352         0.010333
 O        -3.141429        -0.068626         1.340726
 C        -3.368520         1.115990        -0.750643
 C        -4.638985         0.578598        -1.465453
 O        -3.998144         0.611892        -2.676366
 C        -2.891257         1.367210        -2.210144
 H         1.795873        -0.924141         0.566508
 H         2.018433        -0.278235        -1.008549
 H         1.850425         0.780859         0.607996
 H        -3.305656        -1.038878        -0.415055
 H        -2.577268         0.499064         1.854719
 H        -3.493285         1.895390         0.021253
 H        -4.981905        -0.410005        -0.955842
 H        -5.549006         1.207093        -1.558600
 H        -1.803776         0.950629        -2.495477
 H        -2.893726         2.254592        -2.788536
