19
Iteration:  4374charge 0 multiplicity 1
 C         1.519030        -0.042741         0.364143
 C         0.101043        -0.085963         0.065588
 C        -1.042495        -0.087959        -0.244088
 C        -2.522848        -0.274994        -0.226185
 O        -3.152827        -0.523257         1.023878
 C        -3.209596         0.848068        -0.844802
 C        -4.642739         0.740030        -1.196473
 O        -4.432039         1.274526        -2.546326
 C        -3.000829         1.098939        -2.397052
 H         2.083764         0.536181        -0.404576
 H         1.694853         0.324323         1.397508
 H         2.098314        -0.978140         0.457115
 H        -2.627465        -1.194734        -0.947881
 H        -2.526671        -0.768178         1.728330
 H        -3.140047         1.733869        -0.278957
 H        -5.160511        -0.259651        -1.298174
 H        -5.380077         1.415883        -0.570149
 H        -2.545816         0.089909        -2.871304
 H        -2.278812         1.899649        -2.641623
