19
Iteration:  1289
 C         1.163129        -0.424918        -0.253768
 C        -0.303705        -0.320919        -0.175423
 C        -1.491702        -0.281059        -0.190732
 C        -2.845087        -0.091500         0.278400
 O        -2.636345         0.834785         1.368941
 C        -3.825300         0.552852        -0.709323
 C        -4.075339        -0.209424        -2.069808
 O        -3.418258         0.958784        -2.738745
 C        -3.282625         1.645320        -1.495151
 H         1.685704         0.563304        -0.703745
 H         1.559414        -0.722314         0.688567
 H         1.361239        -1.322931        -0.942229
 H        -3.151533        -1.123840         0.561015
 H        -1.724366         0.647342         1.653888
 H        -4.773270         0.701464        -0.111922
 H        -3.548753        -1.108502        -2.393015
 H        -5.146544        -0.149091        -2.333446
 H        -2.277324         1.982678        -1.201756
 H        -3.867379         2.575357        -1.438289
