19
Iteration:  4212charge 0 multiplicity 1
 C         1.437498         0.164902         0.640303
 C         0.094348        -0.189983         0.224769
 C        -0.962159        -0.344674        -0.237891
 C        -2.388903        -0.455229        -0.425983
 O        -3.079476        -0.523847         0.857906
 C        -3.013034         0.880162        -1.065109
 C        -4.493226         1.304592        -0.968488
 O        -4.675877         1.144408        -2.434048
 C        -3.253010         0.863408        -2.562304
 H         1.376020         1.068775         1.189775
 H         1.958168        -0.705304         0.987848
 H         2.033677         0.603575        -0.278433
 H        -2.692264        -1.486961        -1.071407
 H        -2.697003        -1.271568         1.395802
 H        -2.137227         1.626725        -0.743734
 H        -5.188472         0.805525        -0.455102
 H        -4.722353         2.322307        -0.641910
 H        -2.888692        -0.151827        -2.897490
 H        -2.739034         1.731396        -3.065682
