19
Iteration:  4127
 C         1.568918        -0.023861         0.428933
 C         0.141487        -0.130939         0.130136
 C        -1.014212        -0.342459        -0.177484
 C        -2.523067        -0.261416        -0.303360
 O        -3.241345        -0.439638         0.931870
 C        -3.035543         1.085766        -0.892394
 C        -4.616759         1.122411        -1.073924
 O        -4.524310         0.774590        -2.530268
 C        -3.065188         1.125720        -2.470347
 H         1.803950        -0.226049         1.449575
 H         2.165642        -0.796355         0.005456
 H         1.987846         0.938700         0.040804
 H        -2.751862        -1.013281        -0.960804
 H        -2.721006        -0.860765         1.646033
 H        -2.583558         1.992366        -0.370332
 H        -5.283149         0.223612        -0.704580
 H        -5.090049         2.117105        -0.998194
 H        -2.479540         0.318537        -2.911759
 H        -2.988543         2.187384        -2.855369
