19
Iteration:  4882
 C         1.494659        -0.232062         0.600211
 C         0.108882        -0.050704         0.275584
 C        -0.976613        -0.184462        -0.316608
 C        -2.453661        -0.164639        -0.404671
 O        -3.038531        -0.640464         0.730327
 C        -3.108331         1.252445        -0.912059
 C        -4.620295         1.108596        -1.019673
 O        -4.569419         0.736084        -2.424497
 C        -3.194319         1.178394        -2.468303
 H         1.861207         0.777843         0.941807
 H         1.546747        -0.963090         1.471939
 H         2.047905        -0.452083        -0.271109
 H        -2.695249        -0.802255        -1.185010
 H        -2.359238        -0.620865         1.453492
 H        -2.553896         2.051442        -0.447573
 H        -5.002100         0.145641        -0.427240
 H        -4.978282         2.070666        -0.882348
 H        -2.550356         0.529688        -3.079644
 H        -3.313785         1.982977        -3.058842
