19
Iteration:  4162
 C         1.389217         0.067147         0.544852
 C         0.137415        -0.165918         0.014949
 C        -1.091159        -0.217553        -0.185135
 C        -2.482958        -0.394076        -0.363104
 O        -3.172025        -0.477199         0.869739
 C        -2.969340         1.003420        -0.964106
 C        -4.478011         1.205619        -0.979245
 O        -4.544786         0.901009        -2.381123
 C        -3.097632         0.988334        -2.573724
 H         1.211710         0.539119         1.587114
 H         1.954785        -0.898587         0.374243
 H         1.911903         0.883094         0.097877
 H        -2.834249        -1.211283        -0.993548
 H        -2.677631        -1.046685         1.498640
 H        -2.226424         1.665554        -0.690338
 H        -5.215730         0.432809        -0.392755
 H        -4.892877         2.171373        -0.531631
 H        -2.758901         0.151415        -3.174792
 H        -2.614965         1.835545        -3.062645
