19
Iteration:  1109charge 0 multiplicity 1
 C         0.749963        -0.901885        -1.070001
 C        -0.389845        -0.338415        -0.347479
 C        -1.293419         0.049254         0.328763
 C        -2.768990         0.087235         0.610408
 O        -3.254129         1.138330         1.381899
 C        -3.606180         0.224305        -0.726114
 C        -3.088323        -0.239925        -2.109029
 O        -3.283010         1.062012        -2.622651
 C        -3.555044         1.653858        -1.323102
 H         1.578381        -0.177120        -1.082573
 H         1.355653        -1.833453        -0.639128
 H         0.628303        -1.083003        -2.150447
 H        -3.034274        -0.821609         1.128223
 H        -3.778462         0.664088         2.034907
 H        -4.659273        -0.016187        -0.575352
 H        -1.979875        -0.470635        -2.016295
 H        -3.563299        -1.120865        -2.511621
 H        -2.734160         2.253897        -0.859886
 H        -4.482353         2.194410        -1.350013
