19
Iteration:  4695
 C         1.385766         0.176958         0.143227
 C        -0.003463        -0.129798        -0.066165
 C        -1.195332        -0.199674        -0.154905
 C        -2.639576        -0.401784        -0.110930
 O        -3.067908        -0.507626         1.292710
 C        -3.200837         0.773622        -0.865514
 C        -4.671650         0.765439        -1.380598
 O        -4.180261         1.463121        -2.495020
 C        -2.812349         0.937053        -2.354806
 H         1.841889        -0.258134         1.018127
 H         2.054417        -0.130423        -0.649985
 H         1.477630         1.298511         0.334227
 H        -2.818380        -1.483528        -0.582691
 H        -3.479495        -1.363835         1.494559
 H        -3.185816         1.671978        -0.359461
 H        -4.924177        -0.165205        -1.567809
 H        -5.489769         1.272424        -0.801876
 H        -2.431776         0.136075        -3.015280
 H        -2.131882         1.839317        -2.677387
