19
Iteration:  2718
 C         1.576302        -0.169333         0.073078
 C         0.090395        -0.158804         0.030884
 C        -1.112802         0.039330         0.116542
 C        -2.542252        -0.291844        -0.034561
 O        -3.261590        -0.234531         1.262013
 C        -3.194059         0.893118        -0.902610
 C        -4.680339         0.695259        -1.277576
 O        -4.311497         0.853826        -2.743605
 C        -2.931847         1.186488        -2.417753
 H         2.107072        -0.720902         0.947537
 H         1.989004        -0.608560        -0.807344
 H         1.897205         0.870113        -0.075786
 H        -2.770275        -1.261153        -0.455427
 H        -3.085529         0.717858         1.531954
 H        -2.984768         1.827206        -0.304065
 H        -5.044245        -0.296993        -1.007212
 H        -5.316986         1.576280        -0.950667
 H        -2.294300         0.546305        -3.010635
 H        -2.512289         2.257736        -2.743468
