19
Iteration:  2390charge 0 multiplicity 1
 C         1.407310         0.311373         0.374673
 C         0.043834        -0.148968         0.198399
 C        -1.069902        -0.617429        -0.019130
 C        -2.554379        -0.350335        -0.099307
 O        -2.968959         0.084301         1.161885
 C        -3.040210         0.769978        -1.109497
 C        -4.585202         0.990088        -1.163038
 O        -4.469336         1.088062        -2.688428
 C        -3.137449         0.544563        -2.589644
 H         1.623486         0.826450        -0.593245
 H         1.488863         0.911353         1.217965
 H         2.176424        -0.486714         0.559687
 H        -3.179146        -1.304521        -0.392169
 H        -2.255776        -0.289445         1.727399
 H        -2.552922         1.716560        -0.830909
 H        -5.353642         0.263472        -0.739860
 H        -4.972677         2.007287        -0.907141
 H        -3.093143        -0.333765        -3.116540
 H        -2.351281         1.099174        -3.139807
