19
Iteration:  3340
 C         1.371658        -0.004495        -0.344011
 C        -0.042440        -0.093747        -0.034578
 C        -1.262246        -0.266252         0.156834
 C        -2.755099        -0.256835         0.175313
 O        -3.340203        -0.042003         1.492290
 C        -3.174461         0.860867        -0.821488
 C        -4.558742         0.662189        -1.464806
 O        -3.995407         1.120161        -2.747481
 C        -2.641533         0.778201        -2.264198
 H         1.885561        -0.871343        -0.154861
 H         1.598874         0.096383        -1.452381
 H         1.956437         0.858644         0.211571
 H        -3.103038        -1.297532        -0.384844
 H        -3.293449         0.937791         1.545644
 H        -3.207139         1.934788        -0.339395
 H        -4.711301        -0.429334        -1.417432
 H        -5.378458         1.292888        -1.070143
 H        -2.330394        -0.322285        -2.491687
 H        -2.005139         1.552473        -2.711562
