19
Iteration:   612
 C         1.591884        -0.161150         0.769017
 C         0.278030         0.091351         0.278063
 C        -0.866570         0.000847        -0.026619
 C        -2.377000        -0.089451        -0.296082
 O        -3.024581         0.218843         0.905010
 C        -3.004801         0.921129        -1.303722
 C        -4.593497         1.046595        -1.101839
 O        -4.874004         0.418762        -2.412611
 C        -3.356508         0.501016        -2.784392
 H         1.748030        -1.050747         1.252727
 H         2.367317         0.071412        -0.059286
 H         1.771043         0.600107         1.529783
 H        -2.722420        -1.144999        -0.618641
 H        -3.029735        -0.596006         1.493208
 H        -2.563624         1.947982        -1.310616
 H        -5.040375         0.550276        -0.214281
 H        -4.828590         2.147270        -1.217217
 H        -2.969181        -0.482860        -3.066754
 H        -3.135388         1.191085        -3.612739
