19
Iteration:  1352charge 0 multiplicity 1
 C         1.276382        -0.310538        -0.125189
 C        -0.126341        -0.453372        -0.226217
 C        -1.329883        -0.158216        -0.113981
 C        -2.692173        -0.096090         0.142017
 O        -2.889000         0.466762         1.456225
 C        -3.640918         0.790480        -0.681475
 C        -4.333112         0.005450        -1.813489
 O        -3.673343         0.780159        -2.847298
 C        -3.131153         1.735728        -1.821854
 H         1.669013         0.457222        -0.734514
 H         1.622451        -0.121551         0.875987
 H         1.834253        -1.146846        -0.535419
 H        -3.186918        -1.115705         0.126650
 H        -2.316123         0.032083         2.140092
 H        -4.340262         1.420566        -0.067879
 H        -4.228195        -1.122613        -1.930968
 H        -5.442135         0.103831        -1.705097
 H        -2.012825         1.787836        -1.887447
 H        -3.566341         2.762665        -1.874171
