19
Iteration:  4206
 C         1.435357         0.168761         0.625625
 C         0.134074        -0.160254         0.229240
 C        -0.982500        -0.417909        -0.280955
 C        -2.435860        -0.446334        -0.416094
 O        -3.080792        -0.541217         0.867593
 C        -2.979858         0.916553        -1.064494
 C        -4.519731         1.349598        -0.955370
 O        -4.654031         1.114971        -2.433670
 C        -3.233409         0.865391        -2.564861
 H         1.440092         1.082355         1.333488
 H         2.036342        -0.735119         0.925735
 H         2.054710         0.586404        -0.113904
 H        -2.592510        -1.279454        -0.964917
 H        -2.785363        -1.251357         1.464962
 H        -2.425311         1.715863        -0.685134
 H        -5.164727         0.590292        -0.234156
 H        -4.907347         2.393318        -0.760435
 H        -2.894375        -0.042209        -3.082795
 H        -2.743585         1.598441        -3.239166
