19
Iteration:   193charge 0 multiplicity 1
 C         1.498602        -0.316950        -0.003510
 C         0.027717        -0.052503         0.093669
 C        -1.207224        -0.140695        -0.045204
 C        -2.719439        -0.017043         0.229130
 O        -2.848544         0.639807         1.471998
 C        -3.529985         0.830508        -0.904317
 C        -4.709706         0.161064        -1.615041
 O        -4.166289         0.643388        -2.924327
 C        -2.836015         1.077304        -2.252223
 H         2.260818         0.478884        -0.263929
 H         1.792353        -0.800273         0.925312
 H         1.446900        -0.979635        -0.877975
 H        -3.141761        -1.063115         0.259875
 H        -2.076617         0.464938         1.989869
 H        -3.834478         1.790353        -0.373899
 H        -4.723078        -0.962561        -1.512754
 H        -5.847647         0.370469        -1.535416
 H        -1.842604         0.672373        -2.520302
 H        -2.790177         2.173725        -2.411557
