19
Iteration:  2372charge 0 multiplicity 1
 C         1.419100         0.329743         0.423203
 C         0.100967        -0.261623         0.131656
 C        -1.080096        -0.561345         0.054252
 C        -2.509418        -0.399092        -0.167336
 O        -3.089668         0.184285         1.095041
 C        -2.962730         0.750293        -1.147797
 C        -4.483774         1.001581        -1.153245
 O        -4.579534         1.013922        -2.555831
 C        -3.135918         0.631903        -2.699246
 H         1.739560         0.961074        -0.381025
 H         1.344750         0.683442         1.554584
 H         2.171496        -0.504232         0.534199
 H        -2.942708        -1.328433        -0.558735
 H        -2.559837        -0.117483         1.855692
 H        -2.312687         1.554775        -0.828853
 H        -4.993582         0.163809        -0.688611
 H        -4.816096         1.815840        -0.524181
 H        -3.054675        -0.514310        -2.991064
 H        -2.766489         1.378199        -3.431392
