19
Iteration:  4876
 C         1.512654        -0.210176         0.607100
 C         0.082524        -0.050578         0.240911
 C        -1.030130        -0.152623        -0.246559
 C        -2.463698        -0.135972        -0.418184
 O        -3.025558        -0.699883         0.754686
 C        -3.099413         1.234071        -0.936860
 C        -4.590862         1.086085        -1.003349
 O        -4.592645         0.763345        -2.406096
 C        -3.155595         1.142291        -2.522301
 H         1.882950         0.719555         1.044573
 H         1.530677        -1.024159         1.336551
 H         2.121341        -0.461244        -0.326576
 H        -2.739009        -0.994334        -1.211135
 H        -2.320861        -0.579913         1.408009
 H        -2.560061         2.193870        -0.635694
 H        -5.032825         0.408276        -0.348919
 H        -5.173288         2.136544        -0.798023
 H        -2.438805         0.525610        -3.116805
 H        -3.165847         2.240333        -3.113392
