19
Iteration:  1647
 C         1.466747         0.075794         0.771031
 C         0.105950        -0.253965         0.204376
 C        -1.038607        -0.207256        -0.108196
 C        -2.422848        -0.213634        -0.286365
 O        -3.059683         0.094359         0.949021
 C        -2.882141         0.833373        -1.323653
 C        -4.373667         1.191860        -1.064850
 O        -4.741057         0.574292        -2.375657
 C        -3.358828         0.573645        -2.788111
 H         2.130232         0.056907        -0.002574
 H         1.716334         1.175930         1.015726
 H         1.815809        -0.437125         1.660790
 H        -2.828657        -1.157251        -0.549033
 H        -2.519843         0.751601         1.381075
 H        -2.316835         1.788662        -1.253676
 H        -4.985678         0.729096        -0.277016
 H        -4.581760         2.308000        -0.921070
 H        -3.098154        -0.335279        -3.264403
 H        -3.202983         1.560362        -3.347426
