19
Iteration:   588
 C         1.689220        -0.312380         0.856925
 C         0.337092         0.109541         0.238743
 C        -0.847223         0.357287        -0.088321
 C        -2.299108         0.003385        -0.323921
 O        -3.129974         0.220512         0.937351
 C        -3.065617         0.885994        -1.277259
 C        -4.599960         0.896065        -1.149789
 O        -4.876241         0.542294        -2.426847
 C        -3.426739         0.338368        -2.764292
 H         1.579813        -1.421979         0.970340
 H         2.497514        -0.177589         0.195402
 H         1.960516         0.019392         1.844665
 H        -2.456541        -1.052770        -0.574345
 H        -2.753823        -0.459759         1.556438
 H        -2.593093         1.969777        -1.470921
 H        -5.076390         0.204690        -0.449577
 H        -4.923850         1.960948        -0.999299
 H        -3.101716        -0.591358        -3.209595
 H        -3.210689         1.177008        -3.469780
