19
Iteration:  1636
 C         1.439341         0.155995         0.684545
 C         0.142640        -0.170722         0.235668
 C        -1.046492        -0.379423        -0.072119
 C        -2.513814        -0.282548        -0.302906
 O        -3.050170         0.096769         0.981846
 C        -2.881137         0.850390        -1.307703
 C        -4.342965         1.237274        -1.086030
 O        -4.743733         0.578729        -2.389875
 C        -3.333328         0.606717        -2.725980
 H         2.155372        -0.017046        -0.027773
 H         1.179756         1.216332         1.020691
 H         1.748365        -0.499961         1.498321
 H        -2.904315        -1.213821        -0.608631
 H        -2.386673         0.725732         1.372869
 H        -2.065800         1.590428        -1.156867
 H        -4.748875         0.754654        -0.187420
 H        -4.570419         2.309959        -1.294672
 H        -2.969591        -0.222910        -3.288061
 H        -3.032280         1.475936        -3.434544
