19
Iteration:  3752
 C         1.529106        -0.154373        -0.142062
 C         0.019002        -0.001734         0.036543
 C        -1.161278        -0.027089         0.158314
 C        -2.653381        -0.181034         0.130743
 O        -3.262440        -0.206585         1.399802
 C        -3.256183         0.926931        -0.828614
 C        -4.700871         0.782245        -1.454794
 O        -4.120040         1.019578        -2.824534
 C        -2.792729         0.819002        -2.362772
 H         1.752974         0.553822        -0.950475
 H         2.008544         0.058199         0.822876
 H         1.744994        -1.200512        -0.339836
 H        -2.874068        -1.199155        -0.466006
 H        -2.717545        -0.728430         1.979951
 H        -2.953912         1.895113        -0.364171
 H        -5.331189        -0.174542        -1.327681
 H        -5.372267         1.618142        -1.448345
 H        -2.545751        -0.265846        -2.472810
 H        -2.110297         1.637108        -2.607683
