19
Iteration:  4241charge 0 multiplicity 1
 C         1.530586         0.162605         0.624400
 C         0.126225        -0.172658         0.191180
 C        -1.004162        -0.284833        -0.155726
 C        -2.442537        -0.438419        -0.388987
 O        -3.157666        -0.576700         0.887631
 C        -3.004945         0.891519        -1.156770
 C        -4.463993         1.193986        -0.917767
 O        -4.632976         1.245718        -2.382646
 C        -3.270784         0.846263        -2.726281
 H         1.468063         1.185674         1.172175
 H         1.868770        -0.558276         1.451319
 H         2.135811         0.176724        -0.257484
 H        -2.670279        -1.262393        -0.929141
 H        -2.464773        -1.010705         1.427340
 H        -2.258737         1.574910        -0.968374
 H        -5.088397         0.272587        -0.461202
 H        -4.780866         2.187067        -0.410477
 H        -3.130915        -0.163692        -3.069111
 H        -2.798099         1.666093        -3.211505
