19
Iteration:  2123charge 0 multiplicity 1
 C         1.367402        -0.121551         0.303664
 C        -0.032189        -0.140955        -0.062176
 C        -1.186161        -0.236272        -0.220778
 C        -2.621677        -0.112440         0.065285
 O        -2.746303         0.550019         1.325693
 C        -3.311531         0.909532        -0.921892
 C        -4.748835         0.616199        -1.384207
 O        -4.269386         0.711154        -2.779139
 C        -2.931976         0.611062        -2.372558
 H         1.341902         0.021709         1.510805
 H         1.860691        -1.070125         0.182015
 H         1.812466         0.718306        -0.191924
 H        -3.167540        -1.067002         0.040958
 H        -2.233811        -0.033717         1.869468
 H        -3.114032         1.943349        -0.672502
 H        -5.143366        -0.446791        -1.085981
 H        -5.455606         1.492666        -1.352019
 H        -2.432208        -0.315078        -2.577579
 H        -2.343268         1.443377        -2.892255
