19
Iteration:  2683
 C         1.515236        -0.136531         0.035196
 C         0.067845        -0.190608        -0.128585
 C        -1.164509        -0.360337        -0.067436
 C        -2.675967        -0.126383        -0.051099
 O        -3.225417        -0.079263         1.330542
 C        -3.302005         1.110281        -0.769301
 C        -4.619835         0.567486        -1.321750
 O        -4.094279         0.641337        -2.760297
 C        -2.898829         1.362068        -2.264461
 H         2.029239        -0.759399         0.841185
 H         2.020502        -0.206122        -0.940780
 H         1.669832         0.807288         0.385703
 H        -3.014509        -1.075894        -0.448800
 H        -2.847488         0.789659         1.646683
 H        -3.310524         2.032667        -0.107803
 H        -4.837632        -0.501589        -1.213006
 H        -5.571202         1.088893        -1.053641
 H        -1.976696         0.763756        -2.519331
 H        -2.821037         2.498454        -2.435907
