19
Iteration:  4693
 C         1.384277         0.165772         0.120579
 C        -0.002307        -0.125156        -0.059356
 C        -1.202326        -0.197138        -0.149896
 C        -2.648568        -0.397791        -0.110612
 O        -3.063736        -0.512506         1.302825
 C        -3.215744         0.775474        -0.855143
 C        -4.662028         0.747070        -1.381885
 O        -4.175086         1.468248        -2.513382
 C        -2.795299         0.953313        -2.347100
 H         1.829128        -0.238286         0.992265
 H         2.054686        -0.091572        -0.647649
 H         1.456165         1.324240         0.377773
 H        -2.841743        -1.506313        -0.600874
 H        -3.466359        -1.351368         1.485078
 H        -3.143648         1.753419        -0.327303
 H        -5.047383        -0.214396        -1.535745
 H        -5.422893         1.245954        -0.837087
 H        -2.456887         0.166823        -3.038204
 H        -2.142520         1.727998        -2.619761
