19
Iteration:  2002
 C         1.166036        -0.109248        -0.638155
 C        -0.129240        -0.060530        -0.029761
 C        -1.108344        -0.058098         0.687868
 C        -2.573308        -0.037476         0.342667
 O        -3.546245         0.360242         1.264380
 C        -2.924870         0.881111        -0.933670
 C        -4.414544         0.747141        -1.350036
 O        -4.076183         0.589918        -2.703093
 C        -2.650518         0.480468        -2.319756
 H         1.892966        -0.915844        -0.307800
 H         1.041773        -0.445502        -1.602637
 H         1.468717         0.909612        -0.634740
 H        -3.104573        -1.130031         0.216288
 H        -3.676673         1.324021         1.205486
 H        -2.547494         1.893822        -0.863849
 H        -4.766635        -0.206061        -0.829418
 H        -5.164487         1.560428        -1.201054
 H        -2.136154        -0.456501        -2.673682
 H        -2.143707         1.302704        -2.903808
