19
Iteration:  3730
 C         1.507105        -0.109397         0.034734
 C         0.102732         0.015771         0.044009
 C        -1.145334        -0.188819         0.051055
 C        -2.656293        -0.146493         0.000024
 O        -3.210465        -0.159967         1.324032
 C        -3.203965         0.965922        -0.870223
 C        -4.648639         0.907462        -1.410946
 O        -4.260573         0.928738        -2.786027
 C        -2.843077         0.782353        -2.321879
 H         1.984246         0.678466        -0.650189
 H         1.874231        -0.095637         1.075330
 H         1.759435        -1.101534        -0.373180
 H        -3.033069        -1.169655        -0.514080
 H        -2.891229        -1.013511         1.733531
 H        -2.957535         1.952404        -0.377929
 H        -5.123026        -0.189783        -1.167551
 H        -5.347445         1.703311        -1.150232
 H        -2.476397        -0.285930        -2.369640
 H        -2.317544         1.668784        -2.662599
