19
Iteration:  2044
 C         1.405851        -0.116031        -0.406906
 C         0.021664        -0.115207         0.084524
 C        -1.243247        -0.051816         0.171756
 C        -2.688150         0.035712         0.287680
 O        -3.329877         0.391436         1.548204
 C        -3.154230         0.840859        -0.879416
 C        -4.601856         0.709548        -1.460358
 O        -4.056182         0.651815        -2.835877
 C        -2.727440         0.478805        -2.341366
 H         2.072724        -0.662618         0.259656
 H         1.272386        -0.805467        -1.360306
 H         1.752100         0.885530        -0.756850
 H        -3.094129        -1.073173         0.128674
 H        -2.863996         1.181285         1.807345
 H        -2.842182         1.853112        -0.679572
 H        -5.079185        -0.217265        -1.295793
 H        -5.479565         1.324406        -1.219823
 H        -2.401468        -0.548073        -2.443352
 H        -2.023066         1.154075        -2.819251
