19
Iteration:  1235charge 0 multiplicity 1
 C         1.037125        -0.616452        -0.624820
 C        -0.358020        -0.511559        -0.401136
 C        -1.459600        -0.221710         0.139685
 C        -2.787324        -0.003227         0.502266
 O        -2.984420         1.010302         1.492117
 C        -3.724850         0.342431        -0.713144
 C        -3.579309        -0.234564        -2.122944
 O        -3.331412         1.028771        -2.708830
 C        -3.433068         1.762381        -1.447506
 H         1.584350         0.401950        -0.886426
 H         1.422386        -1.041387         0.256058
 H         1.498990        -1.209592        -1.475964
 H        -3.177683        -0.972840         0.930105
 H        -2.579118         1.732636         1.008967
 H        -4.819814         0.214257        -0.508184
 H        -2.736898        -0.794209        -2.351924
 H        -4.410892        -0.806836        -2.504095
 H        -2.503113         2.306275        -1.212664
 H        -4.251616         2.523222        -1.289689
