19
Iteration:  4776
 C         1.496795         0.107000         0.359974
 C         0.089801        -0.233991         0.239890
 C        -1.103461        -0.182268        -0.053609
 C        -2.518100        -0.361623        -0.315985
 O        -3.181903        -0.599706         0.931791
 C        -2.975037         0.927431        -0.992394
 C        -4.577294         0.934602        -1.073703
 O        -4.507403         1.228582        -2.486180
 C        -3.064092         1.032170        -2.553571
 H         1.739204         0.336123         1.434772
 H         2.103410        -0.782296         0.025790
 H         1.760593         0.867940        -0.322333
 H        -2.663271        -1.363862        -0.993877
 H        -2.527084        -0.273801         1.608359
 H        -2.598148         1.789040        -0.383516
 H        -4.985376         0.053146        -0.748607
 H        -5.138475         1.660474        -0.492858
 H        -3.007204         0.120588        -3.172718
 H        -2.560512         2.001604        -2.943851
