19
Iteration:   560
 C         1.519365        -0.357562         0.762395
 C         0.230120         0.061877         0.329649
 C        -0.884755         0.357711        -0.026537
 C        -2.221949         0.140010        -0.303572
 O        -2.908442         0.147849         1.003255
 C        -3.085605         1.037185        -1.288454
 C        -4.643023         0.812430        -1.144083
 O        -4.850259         0.599751        -2.643984
 C        -3.460294         0.274845        -2.656810
 H         1.536062        -1.451466         0.593448
 H         2.395766         0.088591         0.091386
 H         1.792237        -0.121929         1.828851
 H        -2.289092        -0.915175        -0.652153
 H        -2.299666         0.401617         1.760320
 H        -2.830895         2.004788        -1.549860
 H        -4.846713        -0.160564        -0.644465
 H        -5.286530         1.571724        -0.687611
 H        -3.168026        -0.819403        -2.539520
 H        -3.032628         0.696802        -3.557360
