19
Iteration:  1569charge 0 multiplicity 1
 C         1.269928         0.370829         0.211503
 C        -0.041451        -0.203446         0.013658
 C        -1.181612        -0.392134        -0.101933
 C        -2.642953        -0.247080        -0.064239
 O        -3.195454        -0.203983         1.266109
 C        -2.947495         0.921416        -1.036843
 C        -4.331926         1.466000        -1.232211
 O        -4.364601         0.696349        -2.559143
 C        -2.973900         0.344949        -2.477431
 H         1.827841         0.593335        -0.662305
 H         0.955202         1.349388         0.853206
 H         2.037477        -0.157677         0.819441
 H        -3.226993        -1.002441        -0.493283
 H        -2.444305         0.006615         1.795434
 H        -2.140383         1.670351        -0.894856
 H        -5.037354         0.974558        -0.553568
 H        -4.356572         2.512340        -1.538510
 H        -2.858246        -0.725893        -2.619358
 H        -2.325561         0.911847        -3.291471
