19
Iteration:  1830
 C         1.494004        -0.165199         0.168313
 C         0.070250        -0.376862         0.228364
 C        -1.130175        -0.172779         0.085033
 C        -2.577549        -0.003954         0.026390
 O        -2.968818         0.650581         1.280273
 C        -3.164675         0.850667        -1.031973
 C        -4.627323         0.664008        -1.329694
 O        -4.453109         0.538321        -2.755875
 C        -2.972735         0.761308        -2.621295
 H         2.138130        -1.045493        -0.178821
 H         1.564591         0.785183        -0.414094
 H         1.900088         0.073632         1.171740
 H        -3.101270        -1.108551        -0.154636
 H        -2.934696        -0.000594         2.020600
 H        -3.001919         1.932800        -0.797789
 H        -5.101980        -0.289929        -1.013421
 H        -5.301918         1.448918        -0.926568
 H        -2.419502        -0.083477        -2.962508
 H        -2.802360         1.744664        -2.965563
