19
Iteration:  3430charge 0 multiplicity 1
 C         1.536696         0.068006         0.418638
 C         0.046344        -0.172595         0.061234
 C        -1.169436        -0.398275        -0.171697
 C        -2.671493        -0.202005        -0.141345
 O        -2.939991        -0.037930         1.224266
 C        -3.065147         0.992382        -0.994528
 C        -4.646653         1.032544        -1.235619
 O        -4.410504         0.943257        -2.680790
 C        -3.023345         0.640538        -2.477317
 H         1.779338        -0.356322         1.350572
 H         2.045846        -0.529521        -0.315087
 H         1.578454         1.178763         0.419592
 H        -3.278611        -1.173553        -0.453044
 H        -2.956621        -0.946604         1.629977
 H        -2.660786         2.018823        -0.563049
 H        -5.263574         0.129623        -0.978926
 H        -5.244149         1.944383        -1.184889
 H        -2.745302        -0.460468        -2.532014
 H        -2.438430         1.346303        -3.113265
