19
Iteration:  1360charge 0 multiplicity 1
 C         1.306809        -0.301319        -0.184022
 C        -0.162214        -0.418243        -0.166137
 C        -1.279366        -0.070087        -0.132151
 C        -2.749421        -0.085976         0.198345
 O        -2.919392         0.405867         1.475650
 C        -3.609302         0.774954        -0.697034
 C        -4.362702         0.025656        -1.783695
 O        -3.690159         0.809816        -2.845282
 C        -3.108402         1.647139        -1.889612
 H         1.714802         0.485758        -0.782935
 H         1.613796        -0.237312         0.966086
 H         1.690066        -1.302991        -0.390265
 H        -3.167640        -1.196220         0.061637
 H        -2.206016        -0.022556         2.001244
 H        -4.241310         1.267290         0.051495
 H        -4.026984        -0.959525        -1.922200
 H        -5.351276         0.369817        -1.734950
 H        -2.012969         1.675611        -2.118688
 H        -3.380368         2.774214        -1.896308
