19
Iteration:  2241charge 0 multiplicity 1
 C         1.528117        -0.399410         0.571536
 C         0.220176         0.124427         0.150281
 C        -0.967067         0.301160         0.007350
 C        -2.392075        -0.005511        -0.216821
 O        -3.114943        -0.109989         1.033442
 C        -3.045584         1.026607        -1.169515
 C        -4.609932         1.021180        -1.165725
 O        -4.690574         0.695537        -2.568951
 C        -3.221611         0.444034        -2.612412
 H         2.089535         0.218151         1.189593
 H         1.259371        -1.212320         1.305665
 H         2.017278        -0.795973        -0.322310
 H        -2.501786        -0.951798        -0.890011
 H        -2.515555        -0.149455         1.817785
 H        -2.459496         1.934049        -1.098702
 H        -4.967793         0.258816        -0.513818
 H        -5.032968         2.007401        -1.091941
 H        -3.042429        -0.686089        -2.702711
 H        -2.825609         1.028196        -3.435012
