19
Iteration:  2292
 C         1.642600        -0.207751         0.622413
 C         0.190616         0.060242         0.308652
 C        -0.973617         0.035482        -0.094170
 C        -2.383470        -0.079400        -0.203049
 O        -3.030197        -0.233814         1.128677
 C        -3.103598         0.962726        -1.188275
 C        -4.669678         1.306266        -1.243540
 O        -4.714708         0.725882        -2.620382
 C        -3.325014         0.476102        -2.645752
 H         2.169919         0.786673         0.550973
 H         1.858104        -0.629189         1.664566
 H         2.074898        -0.936684        -0.158866
 H        -2.500062        -0.968540        -0.810957
 H        -2.453628        -0.640042         1.779410
 H        -2.418578         1.822293        -1.127670
 H        -5.314029         0.654305        -0.604389
 H        -4.801630         2.406256        -1.285946
 H        -3.188974        -0.632942        -2.768809
 H        -2.768624         0.781987        -3.574841
