19
Iteration:  4959
 C         1.594785        -0.198335         0.558700
 C         0.174091        -0.218770         0.037771
 C        -1.018906        -0.170998        -0.240518
 C        -2.483779        -0.189078        -0.334669
 O        -3.087051        -0.398816         0.948119
 C        -3.214067         1.157724        -0.826472
 C        -4.664267         0.804690        -1.143467
 O        -4.488115         0.859185        -2.588808
 C        -3.150060         1.350843        -2.397537
 H         2.176226         0.683710         0.145162
 H         1.621092        -0.118557         1.715066
 H         2.073415        -1.098824         0.283670
 H        -2.716890        -1.041262        -1.040557
 H        -2.649259        -1.206389         1.296436
 H        -2.829751         1.966293        -0.218023
 H        -5.057018        -0.314247        -0.653897
 H        -5.408261         1.517341        -0.881021
 H        -2.554063         0.596156        -2.994996
 H        -3.023675         2.372689        -2.785668
