19
Iteration:  2131
 C         1.384566        -0.125176         0.381169
 C         0.051619        -0.172695        -0.025259
 C        -1.186360        -0.311048        -0.145658
 C        -2.607516        -0.084602        -0.002101
 O        -2.748023         0.554842         1.262283
 C        -3.280232         0.882997        -0.936818
 C        -4.763251         0.638874        -1.390361
 O        -4.355419         0.681352        -2.748766
 C        -2.954134         0.714949        -2.411422
 H         1.451946         0.216900         1.356132
 H         2.050993        -1.022088         0.158269
 H         1.902401         0.677978        -0.179894
 H        -3.192430        -0.967734        -0.041126
 H        -2.380141        -0.009965         1.949743
 H        -3.118015         1.926444        -0.711309
 H        -5.018636        -0.469014        -1.170829
 H        -5.505316         1.418033        -1.067032
 H        -2.526099        -0.284814        -2.607633
 H        -2.453238         1.386236        -3.072289
