19
Iteration:  1833charge 0 multiplicity 1
 C         1.492774        -0.170689         0.161965
 C         0.083817        -0.371061         0.225005
 C        -1.166161        -0.200464         0.065207
 C        -2.604350        -0.011094         0.041534
 O        -2.968589         0.657117         1.293577
 C        -3.151266         0.853968        -1.028735
 C        -4.624004         0.665343        -1.325655
 O        -4.425320         0.529191        -2.764341
 C        -2.967882         0.758791        -2.608627
 H         2.103139        -0.921900        -0.266946
 H         1.528393         0.799929        -0.498483
 H         1.859187         0.179935         1.153442
 H        -3.093183        -0.956946        -0.105396
 H        -2.939516        -0.032498         1.947665
 H        -2.996212         1.915096        -0.695399
 H        -5.100013        -0.224659        -1.001597
 H        -5.341609         1.461146        -0.915604
 H        -2.417568        -0.114601        -2.995671
 H        -2.764205         1.778865        -2.986061
