19
Iteration:  2057
 C         1.396719        -0.161461        -0.324184
 C         0.010345        -0.074631         0.012884
 C        -1.235767        -0.066324         0.172480
 C        -2.691022        -0.010917         0.269039
 O        -3.175009         0.390777         1.585224
 C        -3.263097         0.913386        -0.898594
 C        -4.667206         0.663011        -1.534679
 O        -4.087137         0.685144        -2.887161
 C        -2.761595         0.465517        -2.300429
 H         2.049941        -0.409929         0.603363
 H         1.658423        -0.774058        -1.191044
 H         1.841290         0.800225        -0.531230
 H        -3.122183        -1.154354         0.111180
 H        -2.542268         0.981481         2.085589
 H        -3.144972         1.963501        -0.660911
 H        -5.062904        -0.231767        -1.235211
 H        -5.229510         1.589732        -1.520449
 H        -2.479557        -0.610423        -2.300502
 H        -1.949800         1.053823        -2.805820
