19
Iteration:  4999charge 0 multiplicity 1
 C         1.530481        -0.196949         0.304092
 C         0.106988        -0.067883         0.181597
 C        -1.077806         0.015887        -0.165744
 C        -2.528120        -0.305655        -0.248994
 O        -3.026555        -0.445648         1.137485
 C        -3.227175         0.904115        -0.845360
 C        -4.741525         0.743535        -1.288626
 O        -4.409718         1.104305        -2.661941
 C        -3.005950         1.225991        -2.367568
 H         2.043771         0.203097        -0.556890
 H         1.863366         0.178718         1.239605
 H         1.736818        -1.318597         0.195379
 H        -2.811996        -1.161282        -0.866848
 H        -2.635873        -1.181246         1.627742
 H        -3.178799         1.793975        -0.135504
 H        -5.106758        -0.188708        -1.172572
 H        -5.370730         1.596866        -0.891432
 H        -2.284248         0.576355        -2.847333
 H        -2.672761         2.296473        -2.565135
