19
Iteration:  4424
 C         1.519560         0.021918         0.148543
 C         0.169473        -0.133455        -0.007308
 C        -1.054322        -0.345063        -0.141338
 C        -2.586618        -0.283971        -0.144175
 O        -3.181110        -0.476179         1.228973
 C        -3.240537         0.973385        -0.780401
 C        -4.752920         0.751773        -1.338036
 O        -4.263294         1.003779        -2.710354
 C        -2.920889         1.423495        -2.232297
 H         2.063842         0.116607        -0.821371
 H         1.803754         0.823961         0.864387
 H         1.972764        -0.868803         0.590107
 H        -2.902695        -1.041229        -0.704019
 H        -3.188820        -1.468863         1.280024
 H        -3.250213         1.786537         0.021597
 H        -5.108802        -0.384541        -1.292062
 H        -5.570357         1.374442        -1.024755
 H        -2.071366         0.900786        -2.574790
 H        -2.952037         2.576037        -2.228338
