19
Iteration:   333charge 0 multiplicity 1
 C         1.184036         0.008329        -0.798446
 C        -0.101589        -0.048918         0.023189
 C        -1.245730         0.047316         0.516191
 C        -2.754466        -0.019137         0.383169
 O        -3.533052         0.250010         1.489983
 C        -3.006351         0.985138        -0.813657
 C        -4.429295         0.828285        -1.511211
 O        -3.917313         0.457628        -2.824586
 C        -2.577557         0.451532        -2.214620
 H         1.174600         0.179129        -1.972577
 H         1.786801         0.742967        -0.450158
 H         1.693793        -0.957075        -0.766989
 H        -2.884542        -1.018416        -0.091165
 H        -3.390022        -0.358773         2.211462
 H        -2.691395         2.063230        -0.558439
 H        -4.819535        -0.045579        -0.949616
 H        -5.154503         1.604849        -1.488667
 H        -2.225311        -0.561602        -2.399063
 H        -1.828251         1.161767        -2.702723
