19
Iteration:  4766charge 0 multiplicity 1
 C         1.475061         0.124035         0.343468
 C         0.092229        -0.224139         0.197882
 C        -1.096095        -0.196031        -0.061243
 C        -2.517658        -0.423128        -0.315941
 O        -3.197870        -0.547373         0.986921
 C        -3.058696         0.843789        -0.962769
 C        -4.557776         0.936049        -1.100189
 O        -4.531077         1.278998        -2.487362
 C        -3.010114         1.073582        -2.529107
 H         1.892148         0.328966         1.358523
 H         2.125510        -0.699696        -0.018999
 H         1.701335         1.025485        -0.198215
 H        -2.731417        -1.418279        -0.894979
 H        -2.478001        -0.559524         1.668210
 H        -2.457424         1.734113        -0.572641
 H        -4.928154        -0.110839        -1.071004
 H        -5.050611         1.641978        -0.512440
 H        -2.658411         0.099783        -2.991141
 H        -2.404474         1.798473        -3.153697
