19
Iteration:  3620charge 0 multiplicity 1
 C         1.465302        -0.169101         0.654242
 C         0.023844        -0.189290         0.259945
 C        -1.028938        -0.051557        -0.291524
 C        -2.529208        -0.238339        -0.387287
 O        -3.039160        -0.196835         0.962488
 C        -2.954132         1.079474        -1.164304
 C        -4.504326         1.206145        -1.044073
 O        -4.612171         0.553653        -2.351658
 C        -3.198600         0.871756        -2.670326
 H         1.751888         0.828895         1.147203
 H         1.669853        -0.807837         1.480032
 H         2.063837        -0.143869        -0.192652
 H        -2.893538        -1.040155        -0.866728
 H        -2.361798         0.123223         1.544304
 H        -2.458963         1.933929        -0.671057
 H        -5.067362         0.417663        -0.422126
 H        -4.849490         2.210577        -1.110243
 H        -2.572307         0.013277        -3.161186
 H        -2.872011         1.786509        -3.333120
