19
Iteration:  4699charge 0 multiplicity 1
 C         1.394012         0.199834         0.181096
 C         0.008762        -0.135621        -0.074649
 C        -1.194574        -0.210461        -0.160077
 C        -2.618796        -0.421501        -0.107077
 O        -3.076097        -0.495577         1.274522
 C        -3.188144         0.749687        -0.884393
 C        -4.677108         0.809108        -1.361868
 O        -4.192660         1.457653        -2.485379
 C        -2.834679         0.941385        -2.367350
 H         1.828201        -0.321373         1.100332
 H         2.042627        -0.173972        -0.686589
 H         1.529770         1.235103         0.230514
 H        -2.807331        -1.316827        -0.558386
 H        -3.479918        -1.366134         1.458018
 H        -3.139198         1.713887        -0.287752
 H        -4.867955        -0.383027        -1.700423
 H        -5.514756         1.300369        -0.798154
 H        -2.483977         0.040269        -2.940888
 H        -2.188717         1.857920        -2.671768
