19
Iteration:   161charge 0 multiplicity 1
 C         1.462994        -0.322023         0.207887
 C         0.067189        -0.327403         0.069548
 C        -1.091420        -0.071418         0.007831
 C        -2.512512         0.011570         0.119883
 O        -2.921934         0.661231         1.436863
 C        -3.346915         0.839677        -0.938205
 C        -4.561961         0.068980        -1.556300
 O        -4.438030         0.689121        -2.930111
 C        -3.078978         1.207763        -2.402813
 H         1.993473         0.619030         0.336467
 H         1.768477        -1.136734         0.946861
 H         1.849469        -0.877856        -0.670590
 H        -2.936123        -1.025839         0.253917
 H        -2.071347         0.958155         1.838157
 H        -3.749232         1.734786        -0.357019
 H        -4.206454        -1.010679        -1.574620
 H        -5.651681         0.322434        -1.162521
 H        -2.081809         0.794184        -2.822140
 H        -3.131262         2.304844        -2.523243
