19
Iteration:  3777
 C         1.392903        -0.129869        -0.292801
 C        -0.033360        -0.115067         0.031672
 C        -1.234712         0.093171         0.196217
 C        -2.604655        -0.242301         0.129611
 O        -3.333778        -0.127565         1.405789
 C        -3.278411         0.819369        -0.813143
 C        -4.601586         0.650899        -1.457432
 O        -4.067447         1.101526        -2.803949
 C        -2.638316         0.865725        -2.275602
 H         1.464479         0.410854        -1.361516
 H         1.938900         0.314357         0.579980
 H         1.629386        -1.149859        -0.306561
 H        -2.668668        -1.302854        -0.399240
 H        -2.750359        -0.218306         2.164873
 H        -3.061371         1.758479        -0.354372
 H        -5.063378        -0.468873        -1.598387
 H        -5.455760         1.370458        -1.164392
 H        -2.471593        -0.208152        -2.572798
 H        -1.879435         1.778330        -2.359070
