19
Iteration:  1370charge 0 multiplicity 1
 C         1.344983        -0.370013        -0.202877
 C        -0.111889        -0.311954        -0.108882
 C        -1.335069         0.002579        -0.148810
 C        -2.756793        -0.080016         0.190563
 O        -2.961842         0.325830         1.575986
 C        -3.589228         0.789152        -0.716844
 C        -4.395759         0.094003        -1.800804
 O        -3.764409         0.824300        -2.874756
 C        -2.979757         1.569191        -1.928962
 H         1.722703         0.435868        -0.861361
 H         1.751294        -0.061566         0.866545
 H         1.744233        -1.353130        -0.534223
 H        -2.986593        -1.166940         0.120832
 H        -2.137617         0.001359         2.037339
 H        -4.243146         1.325666        -0.043981
 H        -4.243856        -0.969565        -1.838544
 H        -5.477378         0.141676        -1.901161
 H        -1.896814         1.506932        -2.071025
 H        -3.429472         2.594648        -1.921625
