19
Iteration:  1683charge 0 multiplicity 1
 C         1.618534        -0.225193         0.884488
 C         0.295971        -0.057379         0.290230
 C        -0.900042        -0.014024        -0.132632
 C        -2.367046         0.022324        -0.358963
 O        -2.968263         0.028994         0.932305
 C        -3.065034         1.069521        -1.279798
 C        -4.639564         1.091941        -1.140525
 O        -4.862359         0.586834        -2.511074
 C        -3.407164         0.450411        -2.676925
 H         2.211177        -0.861760         0.171341
 H         2.052423         0.749032         1.192589
 H         1.630456        -1.008978         1.676452
 H        -2.594485        -0.922845        -0.675744
 H        -2.601372         0.615865         1.571692
 H        -2.489168         1.973064        -1.405926
 H        -5.037643         0.327228        -0.486977
 H        -4.889084         2.095518        -0.940779
 H        -3.139958        -0.650669        -2.828822
 H        -3.004884         0.937843        -3.581036
