19
Iteration:  1943
 C         1.192594        -0.068446        -0.635100
 C        -0.115373        -0.017606         0.026376
 C        -1.253001        -0.060829         0.368536
 C        -2.737140        -0.018114         0.284853
 O        -3.367249         0.245182         1.508077
 C        -3.108854         0.984773        -0.877569
 C        -4.496777         1.015443        -1.544807
 O        -3.923642         0.396332        -2.757369
 C        -2.627664         0.388671        -2.168647
 H         1.695300        -0.942490        -0.472544
 H         0.865019         0.207237        -1.709402
 H         1.941519         0.717781        -0.408649
 H        -3.171861        -1.061043        -0.168922
 H        -2.711612         0.407750         2.243100
 H        -2.754274         2.012534        -0.696219
 H        -5.292691         0.482358        -1.136187
 H        -4.638990         2.105100        -1.801026
 H        -2.296920        -0.614131        -1.987599
 H        -1.940147         0.886458        -2.823952
