19
Iteration:   785
 C         1.334946         0.028312        -0.436193
 C        -0.008582        -0.085407         0.033354
 C        -1.205562         0.030482         0.374077
 C        -2.608374        -0.096762         0.259054
 O        -3.365154         0.042985         1.447315
 C        -3.140362         0.869104        -0.853027
 C        -4.603212         0.692203        -1.496380
 O        -4.037637         0.858284        -2.832564
 C        -2.712229         0.596330        -2.273195
 H         2.201345         0.101929         0.347440
 H         1.543130        -0.787860        -1.173931
 H         1.411338         1.022975        -0.921144
 H        -2.766477        -1.143587        -0.173719
 H        -3.559836        -0.799552         1.828908
 H        -2.965344         1.987443        -0.703041
 H        -5.058597        -0.306631        -1.412636
 H        -5.363982         1.418433        -1.234074
 H        -2.444741        -0.446578        -2.486786
 H        -1.942321         1.291430        -2.709980
