19
Iteration:  4465charge 0 multiplicity 1
 C         1.425179        -0.016166        -0.097050
 C        -0.012916        -0.149789        -0.043550
 C        -1.217494        -0.116056        -0.033534
 C        -2.562526        -0.258902        -0.202880
 O        -3.240673        -0.503150         1.143341
 C        -3.344434         0.943855        -0.658579
 C        -4.669929         0.741953        -1.391169
 O        -3.962575         0.815662        -2.672016
 C        -2.856337         1.491708        -1.975830
 H         1.774832        -0.265693        -1.075510
 H         1.690160         0.982336         0.195241
 H         1.923484        -0.658933         0.724894
 H        -2.726573        -1.224895        -0.896299
 H        -2.686048        -1.141866         1.606012
 H        -3.213717         1.718705         0.144551
 H        -5.137020        -0.267299        -1.247276
 H        -5.464831         1.569952        -1.175894
 H        -1.861813         1.269981        -2.462211
 H        -2.895169         2.523749        -2.053272
