19
Iteration:  2145charge 0 multiplicity 1
 C         1.544598        -0.062894         0.423045
 C         0.094852        -0.291301         0.058567
 C        -1.161509        -0.362651        -0.122052
 C        -2.577293        -0.084913        -0.015898
 O        -2.820731         0.580682         1.271430
 C        -3.233289         0.940285        -1.026226
 C        -4.704630         0.602366        -1.296748
 O        -4.518151         0.687013        -2.804888
 C        -3.020029         0.746565        -2.553007
 H         1.621478         0.157610         1.575185
 H         1.940270        -1.053831         0.426509
 H         2.058237         0.610819        -0.236441
 H        -3.070392        -0.980984        -0.076031
 H        -2.534529        -0.115342         1.934565
 H        -3.066040         1.870527        -0.503034
 H        -5.096114        -0.441881        -0.936712
 H        -5.462067         1.445481        -1.062896
 H        -2.490803        -0.129997        -2.842540
 H        -2.502454         1.674969        -2.896634
