19
Iteration:  3970charge 0 multiplicity 1
 C         1.545283        -0.217345        -0.265152
 C         0.014131        -0.240617        -0.042137
 C        -1.225044        -0.188579         0.043885
 C        -2.706345        -0.127469         0.106734
 O        -3.212182        -0.045210         1.463570
 C        -3.537558         1.008608        -0.693851
 C        -4.632827         0.500212        -1.616346
 O        -3.898592         0.815828        -2.845370
 C        -2.840645         1.368445        -2.066451
 H         1.815490        -1.218714        -0.417827
 H         1.675135         0.477236        -1.069761
 H         2.022467         0.053183         0.640444
 H        -3.071371        -1.076810        -0.487742
 H        -2.437830        -0.367010         1.939926
 H        -3.469060         1.876191         0.084482
 H        -4.761685        -0.625240        -1.596294
 H        -5.522321         1.118866        -1.613881
 H        -1.826220         0.882297        -2.214201
 H        -2.766719         2.469759        -2.278582
