19
Iteration:  3173charge 0 multiplicity 1
 C         1.290080        -0.119960        -0.245489
 C        -0.134888        -0.196349        -0.069104
 C        -1.352244        -0.255553         0.033087
 C        -2.795298        -0.187945         0.062482
 O        -3.094205         0.076113         1.424201
 C        -3.317175         0.995601        -0.701563
 C        -4.574648         0.583495        -1.529091
 O        -3.816432         0.551826        -2.770646
 C        -2.713240         1.351472        -2.111332
 H         1.540933        -0.277645        -1.298942
 H         1.635173         0.963724        -0.335840
 H         2.037711        -0.659530         0.431066
 H        -3.305810        -1.020506        -0.244376
 H        -2.238922        -0.134917         1.855323
 H        -3.544022         1.820534        -0.005092
 H        -5.158214        -0.318201        -1.250025
 H        -5.326783         1.436732        -1.570334
 H        -1.814924         0.870235        -2.436354
 H        -2.789201         2.369719        -2.390087
