19
Iteration:  2662
 C         1.427614        -0.082904        -0.027493
 C        -0.032685        -0.257100        -0.078412
 C        -1.234067        -0.225462        -0.174209
 C        -2.686581        -0.110832         0.016793
 O        -3.091306        -0.084407         1.363700
 C        -3.370671         1.090678        -0.756012
 C        -4.679709         0.593758        -1.467994
 O        -3.944801         0.554336        -2.711115
 C        -2.860245         1.353129        -2.172185
 H         1.913045        -0.955120         0.543052
 H         1.762258        -0.195142        -1.054307
 H         1.814423         0.661696         0.595671
 H        -3.045147        -1.039872        -0.330143
 H        -2.356436         0.349402         1.842918
 H        -3.449926         1.962093        -0.050629
 H        -5.208094        -0.275865        -1.129188
 H        -5.494837         1.350359        -1.582189
 H        -1.905363         0.933631        -2.417707
 H        -2.921647         2.497048        -2.473011
