19
Iteration:   530charge 0 multiplicity 1
 C         1.580653        -0.326178         0.710122
 C         0.197087         0.052206         0.335490
 C        -0.881480         0.255142        -0.229266
 C        -2.338802         0.085576        -0.210034
 O        -2.849053         0.229995         1.146098
 C        -3.206712         0.897012        -1.186332
 C        -4.764889         0.779511        -1.157155
 O        -4.705436         0.680252        -2.744155
 C        -3.339760         0.299239        -2.633022
 H         1.750265        -1.377642         0.252512
 H         2.291928         0.289969         0.231547
 H         1.755056        -0.332489         1.796131
 H        -2.501172        -0.962105        -0.447552
 H        -2.652251         1.047813         1.624640
 H        -3.068337         1.979108        -1.383229
 H        -5.157169        -0.167881        -0.737239
 H        -5.313610         1.609445        -0.755511
 H        -3.114533        -0.790477        -2.662256
 H        -2.785470         0.801500        -3.443529
