19
Iteration:  4183
 C         1.469832         0.143475         0.629252
 C         0.086047        -0.136187         0.077641
 C        -1.031363        -0.423953        -0.233607
 C        -2.558796        -0.294456        -0.428314
 O        -3.127833        -0.555402         0.921052
 C        -2.927873         0.997198        -1.028208
 C        -4.414169         1.213691        -0.997175
 O        -4.634966         1.020806        -2.407462
 C        -3.196412         0.902663        -2.544193
 H         1.390948         0.819812         1.510641
 H         2.048064        -0.783707         0.694968
 H         2.103715         0.782094         0.046281
 H        -2.863567        -1.068691        -1.009296
 H        -2.635750        -1.267805         1.328075
 H        -2.326552         1.853462        -0.703777
 H        -5.225626         0.530036        -0.391216
 H        -4.679503         2.273141        -0.709361
 H        -2.709012         0.040204        -3.004857
 H        -2.750259         1.690983        -3.218227
