19
Iteration:  4319
 C         1.621942        -0.003218         0.513219
 C         0.168722        -0.090926         0.225335
 C        -1.020004        -0.100047        -0.065320
 C        -2.428268        -0.373224        -0.308482
 O        -3.054054        -0.702987         1.037519
 C        -3.078485         0.822416        -1.100305
 C        -4.666297         0.939369        -1.125484
 O        -4.599595         1.450729        -2.484162
 C        -3.253420         0.925305        -2.644714
 H         2.026653         1.020132         0.206018
 H         1.911596        -0.083088         1.600489
 H         2.107238        -0.853427        -0.045266
 H        -2.578622        -1.276864        -0.860674
 H        -3.154387         0.188375         1.472839
 H        -2.622179         1.727317        -0.735588
 H        -5.201590        -0.155945        -1.090799
 H        -5.249815         1.762707        -0.486577
 H        -3.154375        -0.071528        -3.231323
 H        -2.474674         1.499534        -3.141788
