19
Iteration:  2396
 C         1.403015         0.314828         0.351483
 C         0.029271        -0.138497         0.217445
 C        -1.087455        -0.548460        -0.093475
 C        -2.590882        -0.380181        -0.095139
 O        -2.937777         0.059591         1.230246
 C        -3.062729         0.760981        -1.073893
 C        -4.630058         1.003551        -1.217987
 O        -4.437280         1.116619        -2.717957
 C        -3.087997         0.514997        -2.562112
 H         1.595164         0.623065        -0.721876
 H         1.545197         0.993125         1.288502
 H         2.064768        -0.516454         0.523258
 H        -3.056119        -1.256476        -0.470303
 H        -2.263482        -0.286276         1.796952
 H        -2.462449         1.657077        -0.807553
 H        -5.268127         0.261338        -0.749517
 H        -4.926683         1.966448        -0.812519
 H        -3.157374        -0.639460        -2.950836
 H        -2.462082         1.213369        -3.139064
