19
Iteration:  2819
 C         1.623389         0.157417         0.471129
 C         0.207311        -0.014014         0.123636
 C        -0.998408        -0.287969         0.029273
 C        -2.481817        -0.373182        -0.160052
 O        -3.234428        -0.330382         1.026394
 C        -3.058551         0.737610        -1.092422
 C        -4.571261         1.093572        -1.120409
 O        -4.551316         1.284615        -2.571796
 C        -3.265562         0.566876        -2.650213
 H         1.827464         0.662565         1.389161
 H         2.204650        -0.781469         0.399453
 H         2.101858         0.682778        -0.477915
 H        -2.684214        -1.375629        -0.626938
 H        -2.676005        -0.662177         1.717867
 H        -2.448243         1.559422        -0.767956
 H        -5.284206         0.349052        -0.647259
 H        -4.817966         2.117155        -0.701644
 H        -3.335196        -0.491788        -2.981028
 H        -2.503136         1.271890        -3.320110
