19
Iteration:  4390charge 0 multiplicity 1
 C         1.481243        -0.017633         0.315024
 C         0.076261        -0.135381        -0.017378
 C        -1.096023        -0.102141        -0.144587
 C        -2.538701        -0.334335        -0.258564
 O        -3.120546        -0.452471         1.070066
 C        -3.179345         0.916260        -0.857880
 C        -4.709263         0.700999        -1.226633
 O        -4.374516         1.196995        -2.570596
 C        -2.920230         1.174233        -2.288356
 H         1.990355         0.478017        -0.500158
 H         1.626476         0.598991         1.204443
 H         1.831613        -1.101803         0.457760
 H        -2.772088        -1.155944        -0.794746
 H        -2.652407        -1.256747         1.429988
 H        -2.899538         1.786825        -0.141973
 H        -4.931670        -0.442918        -1.134913
 H        -5.489711         1.307153        -0.721296
 H        -2.385725         0.490599        -2.927056
 H        -2.481143         2.123115        -2.655566
