19
Iteration:   959charge 0 multiplicity 1
 C         1.185403        -0.191895        -0.156142
 C        -0.290799        -0.228011        -0.347449
 C        -1.454443        -0.339356        -0.232350
 C        -2.807241        -0.051896         0.267116
 O        -2.546538         0.676404         1.519271
 C        -3.799601         0.653682        -0.696127
 C        -4.338644        -0.112245        -1.985252
 O        -3.487874         0.723234        -2.836276
 C        -3.076055         1.609618        -1.640267
 H         1.678265         0.373807         0.753772
 H         1.502631        -1.180360         0.024269
 H         1.771592        -0.082344        -1.084161
 H        -3.285055        -0.982487         0.533890
 H        -3.154166         0.339851         2.180788
 H        -4.604150         1.017782         0.007005
 H        -4.100192        -1.176231        -2.214636
 H        -5.492961         0.109190        -2.060248
 H        -1.982812         1.599095        -1.424736
 H        -3.480797         2.683019        -1.693625
