19
Iteration:   247charge 0 multiplicity 1
 C         1.294315        -0.156801        -0.365708
 C        -0.155508        -0.186355        -0.307021
 C        -1.280231        -0.043101         0.120400
 C        -2.758453         0.028831         0.315496
 O        -3.147175         0.598629         1.687526
 C        -3.359401         0.909072        -0.813777
 C        -4.544398         0.309966        -1.607687
 O        -3.864529         0.545710        -2.872024
 C        -2.667696         0.832526        -2.168450
 H         1.543077         0.825772        -1.000180
 H         1.663491        -0.020965         0.655325
 H         1.789063        -1.044221        -0.804616
 H        -3.192737        -0.979774         0.264468
 H        -2.806654        -0.077898         2.262779
 H        -3.568595         1.900501        -0.310416
 H        -4.542542        -0.746529        -1.356644
 H        -5.516584         0.857406        -1.716088
 H        -1.989119        -0.013745        -2.180197
 H        -2.241103         1.832103        -2.463202
