19
Iteration:  1366
 C         1.340193        -0.342566        -0.194618
 C        -0.112934        -0.362097        -0.123042
 C        -1.329520        -0.009202        -0.147920
 C        -2.775931        -0.084291         0.206129
 O        -2.945205         0.352853         1.536551
 C        -3.585906         0.782230        -0.720028
 C        -4.377157         0.079690        -1.777661
 O        -3.732527         0.827562        -2.857709
 C        -3.031948         1.587971        -1.927141
 H         1.721395         0.534604        -0.836333
 H         1.623773        -0.154411         0.793087
 H         1.673073        -1.378587        -0.431763
 H        -2.998852        -1.116690         0.102161
 H        -2.177992        -0.013375         1.955013
 H        -4.234540         1.195566         0.072631
 H        -4.077321        -1.025213        -1.873920
 H        -5.517306         0.297167        -1.906740
 H        -1.961758         1.547930        -2.134367
 H        -3.425177         2.578267        -1.916901
