19
Iteration:  2223
 C         1.613356        -0.427946         0.568750
 C         0.277433         0.101414         0.250998
 C        -0.939134         0.097823        -0.051095
 C        -2.420057         0.065427        -0.204131
 O        -3.237788         0.044600         1.007917
 C        -3.076948         1.036369        -1.227650
 C        -4.584729         0.899354        -1.093058
 O        -4.681658         0.665123        -2.574165
 C        -3.256648         0.545723        -2.640149
 H         2.171734         0.432138         1.180215
 H         1.580750        -1.388097         0.985639
 H         2.204089        -0.562121        -0.340075
 H        -2.579660        -0.916338        -0.659884
 H        -2.564055        -0.021938         1.728548
 H        -2.738475         2.083289        -1.027299
 H        -4.818512        -0.136726        -0.695910
 H        -5.109071         1.826412        -0.708256
 H        -2.839143        -0.422209        -2.740327
 H        -2.685172         1.101086        -3.440585
