19
Iteration:  4868
 C         1.495218        -0.184696         0.609825
 C         0.095309        -0.062510         0.192138
 C        -1.075385        -0.093354        -0.174543
 C        -2.477373        -0.130524        -0.467273
 O        -3.026392        -0.748549         0.799750
 C        -3.042136         1.176133        -1.002754
 C        -4.588899         1.129176        -0.983167
 O        -4.598985         0.773256        -2.401010
 C        -3.155057         1.163625        -2.561864
 H         1.943044         0.618770         1.140028
 H         1.654294        -1.038708         1.213636
 H         2.174457        -0.461753        -0.286843
 H        -2.743774        -0.871631        -1.250015
 H        -2.382336        -0.550189         1.485918
 H        -2.656310         2.195311        -0.561689
 H        -5.120437         0.362955        -0.239325
 H        -5.158326         2.001529        -0.842644
 H        -2.525669         0.344985        -3.040391
 H        -2.921502         2.168534        -2.884498
