19
Iteration:   288charge 0 multiplicity 1
 C         1.153421        -0.083608        -0.672480
 C        -0.069917        -0.044901         0.103787
 C        -1.271515        -0.094353         0.407786
 C        -2.759196        -0.125782         0.314809
 O        -3.336761         0.523826         1.434014
 C        -3.161055         0.813071        -0.782511
 C        -4.494450         0.533389        -1.502573
 O        -3.859059         0.522953        -2.835053
 C        -2.607072         0.760266        -2.228144
 H         0.870359         0.494453        -1.604059
 H         1.976942         0.407751        -0.344335
 H         1.289086        -1.069665        -1.130097
 H        -3.132441        -1.167114         0.206861
 H        -2.880238         0.199803         2.239189
 H        -2.920651         1.829500        -0.451581
 H        -4.871371        -0.487718        -1.238246
 H        -5.286214         1.223430        -1.448572
 H        -1.773565         0.088079        -2.416881
 H        -2.328174         1.800742        -2.593600
