19
Iteration:  2771charge 0 multiplicity 1
 C         1.552615        -0.125394         0.166047
 C         0.112416         0.096521         0.214210
 C        -1.107655         0.076462         0.089386
 C        -2.519098        -0.131103        -0.122788
 O        -3.183828        -0.531931         1.091579
 C        -3.129706         0.946291        -0.968804
 C        -4.618557         0.976870        -1.240380
 O        -4.427323         1.126068        -2.676282
 C        -3.067352         0.612704        -2.436859
 H         1.863411        -0.216820         1.273629
 H         1.859778        -1.050103        -0.293744
 H         2.107280         0.576688        -0.321144
 H        -2.690365        -1.029698        -0.827167
 H        -2.558258        -0.241980         1.816029
 H        -2.613004         1.960422        -0.780778
 H        -4.975222        -0.067178        -1.136754
 H        -5.210309         1.687456        -0.592411
 H        -3.093731        -0.532768        -2.699729
 H        -2.306208         1.145216        -3.020518
