19
Iteration:  3662charge 0 multiplicity 1
 C         1.532641         0.023681         0.494867
 C         0.107191        -0.293902         0.106495
 C        -1.063589        -0.489798        -0.074085
 C        -2.544158        -0.224701        -0.263258
 O        -3.133152        -0.049885         1.089717
 C        -3.051162         1.068076        -1.039450
 C        -4.636587         1.057942        -1.176160
 O        -4.525622         0.651298        -2.535198
 C        -3.057451         1.038877        -2.618458
 H         1.777833         1.051886         0.502679
 H         1.784746        -0.364338         1.472054
 H         2.429410        -0.314639        -0.200944
 H        -2.997839        -1.214563        -0.674088
 H        -2.419579        -0.374711         1.670265
 H        -2.488910         2.020427        -0.700963
 H        -5.115776         0.456108        -0.294883
 H        -5.054842         2.068961        -1.154719
 H        -2.577316         0.079899        -3.001247
 H        -2.963701         1.949976        -3.183074
