19
Iteration:  2181
 C         1.604039        -0.190153         0.456954
 C         0.167594        -0.366301         0.316752
 C        -0.973189        -0.064648         0.048495
 C        -2.464119        -0.080462        -0.140989
 O        -3.018913         0.456910         1.109075
 C        -3.120139         0.867791        -1.134237
 C        -4.640456         0.657008        -1.182860
 O        -4.675627         0.677560        -2.709586
 C        -3.196458         0.804229        -2.707460
 H         1.877365         0.513377         1.336523
 H         2.087085        -1.156613         0.620430
 H         2.207734         0.240124        -0.372764
 H        -2.836719        -1.108508        -0.268245
 H        -2.612968        -0.054923         1.869883
 H        -2.886589         1.945898        -1.012571
 H        -5.061747        -0.212637        -0.603535
 H        -5.214418         1.552512        -0.779170
 H        -2.720233         0.004975        -3.333851
 H        -2.974834         1.759560        -3.262212
