19
Iteration:  2177charge 0 multiplicity 1
 C         1.608423        -0.163170         0.462283
 C         0.170202        -0.389603         0.302353
 C        -1.020116        -0.099226         0.015690
 C        -2.437003        -0.083420        -0.102251
 O        -3.007071         0.481255         1.144747
 C        -3.113010         0.872070        -1.130997
 C        -4.671030         0.654444        -1.206664
 O        -4.667291         0.674812        -2.697344
 C        -3.191440         0.809075        -2.737336
 H         1.844431         0.493391         1.346318
 H         2.069283        -1.135273         0.561943
 H         2.138906         0.255640        -0.380906
 H        -2.794928        -1.077839        -0.202314
 H        -2.615195        -0.074581         1.811409
 H        -2.903952         1.907710        -0.878365
 H        -5.006063        -0.339829        -0.716437
 H        -5.191739         1.592701        -0.928199
 H        -2.732409         0.067005        -3.344982
 H        -2.891600         1.777269        -3.196090
