19
Iteration:  2308charge 0 multiplicity 1
 C         1.626214        -0.057729         0.584783
 C         0.227922        -0.028166         0.316744
 C        -0.947925        -0.193164        -0.011643
 C        -2.459386        -0.151135        -0.267747
 O        -3.082398        -0.106885         1.031815
 C        -3.048790         1.001095        -1.193684
 C        -4.600744         1.223751        -1.197627
 O        -4.741053         0.796800        -2.578033
 C        -3.273749         0.442297        -2.630968
 H         2.227328         0.853310         0.476647
 H         1.805548        -0.246789         1.677964
 H         2.009209        -0.848813        -0.029064
 H        -2.744781        -1.138281        -0.670971
 H        -2.454033        -0.645445         1.492810
 H        -2.583142         1.987242        -1.168858
 H        -5.188539         0.590100        -0.509193
 H        -4.880250         2.277028        -1.158269
 H        -3.135285        -0.671731        -2.740012
 H        -2.888070         1.121041        -3.361585
