19
Iteration:  3641
 C         1.415088        -0.044809         0.570030
 C         0.116667        -0.283136         0.250371
 C        -1.051062        -0.317098        -0.205949
 C        -2.510088        -0.167540        -0.322106
 O        -3.074649        -0.113761         1.003093
 C        -2.996116         1.031619        -1.056694
 C        -4.495700         1.160802        -1.113632
 O        -4.575528         0.579855        -2.487559
 C        -3.214318         0.938374        -2.617493
 H         1.772288         0.952236         0.737136
 H         1.759520        -0.554849         1.445552
 H         2.089970        -0.203737        -0.290424
 H        -2.899377        -1.067105        -0.730667
 H        -2.252286        -0.105777         1.556406
 H        -2.416309         1.964580        -0.760228
 H        -5.107993         0.407069        -0.436086
 H        -4.847474         2.168020        -1.147520
 H        -2.455965         0.268047        -3.220788
 H        -3.137723         2.033639        -2.988125
