19
Iteration:   154charge 0 multiplicity 1
 C         1.515139        -0.374824         0.243658
 C         0.114482        -0.382426         0.063916
 C        -1.070856        -0.024635        -0.053497
 C        -2.577850         0.066745         0.172970
 O        -2.941955         0.636838         1.405001
 C        -3.376755         0.835081        -0.959497
 C        -4.555393         0.047284        -1.545763
 O        -4.446475         0.696465        -2.879477
 C        -3.090493         1.246667        -2.437232
 H         1.813983         0.624643         0.486640
 H         1.928841        -1.061068         1.105791
 H         2.107497        -0.703234        -0.644476
 H        -2.983330        -0.943400         0.257759
 H        -2.105704         1.007724         1.823990
 H        -3.622645         1.797511        -0.557687
 H        -4.237882        -0.993701        -1.529191
 H        -5.527857         0.085875        -1.109176
 H        -2.317111         0.739007        -3.050601
 H        -3.057287         2.319193        -2.538372
