19
Iteration:  4366charge 0 multiplicity 1
 C         1.585241        -0.043071         0.393908
 C         0.173516        -0.065011         0.111560
 C        -1.039760        -0.099384        -0.224450
 C        -2.502083        -0.302251        -0.285216
 O        -3.166116        -0.565935         1.050411
 C        -3.211353         0.861947        -0.885041
 C        -4.679105         0.808046        -1.239898
 O        -4.451325         1.312388        -2.541891
 C        -3.059671         1.023597        -2.381922
 H         2.077351         0.669916        -0.222002
 H         1.686895         0.383719         1.382627
 H         1.976795        -1.177613         0.332814
 H        -2.761317        -1.106854        -0.840429
 H        -2.406391        -0.522732         1.647441
 H        -3.030960         1.737268        -0.176668
 H        -5.031703        -0.344958        -1.349565
 H        -5.367195         1.430036        -0.486629
 H        -2.724972         0.135254        -3.012956
 H        -2.461056         1.808643        -2.812323
