19
Iteration:  3787charge 0 multiplicity 1
 C         1.321102        -0.137358        -0.328834
 C        -0.012641        -0.098164         0.015755
 C        -1.235395         0.039572         0.228234
 C        -2.660079        -0.242745         0.156768
 O        -3.353411        -0.089636         1.370977
 C        -3.183385         0.811424        -0.779559
 C        -4.602088         0.576211        -1.502671
 O        -4.016828         1.140318        -2.790628
 C        -2.702949         0.898547        -2.223818
 H         1.595773         0.275140        -1.363439
 H         1.955678         0.512361         0.301216
 H         1.761237        -1.062314        -0.449799
 H        -2.833963        -1.374273        -0.137034
 H        -2.753119        -0.101497         2.110376
 H        -3.250326         1.725891        -0.220116
 H        -4.840586        -0.559273        -1.491511
 H        -5.479517         1.223763        -1.248376
 H        -2.179538        -0.078330        -2.527952
 H        -1.864203         1.630484        -2.568000
