19
Iteration:   811charge 0 multiplicity 1
 C         1.355621        -0.159557        -0.470271
 C        -0.101026         0.097433        -0.115683
 C        -1.233091         0.212641         0.331806
 C        -2.665132        -0.160340         0.271474
 O        -3.424081         0.128700         1.479200
 C        -3.159558         0.781423        -0.825991
 C        -4.512004         0.378608        -1.482820
 O        -3.953400         0.976441        -2.734520
 C        -2.635890         0.741152        -2.266082
 H         2.052838        -0.114662         0.278245
 H         1.480454        -1.182640        -0.996512
 H         1.710687         0.641590        -1.142000
 H        -2.743798        -1.149740        -0.043545
 H        -3.982170        -0.597886         1.692245
 H        -3.247443         1.808725        -0.567966
 H        -4.767292        -0.663005        -1.679612
 H        -5.415850         0.852797        -1.067502
 H        -2.360859        -0.302034        -2.551756
 H        -1.981996         1.511550        -2.653762
