19
Iteration:  3014charge 0 multiplicity 1
 C         1.715233        -0.206304         0.446291
 C         0.240269        -0.096873         0.271431
 C        -0.981071         0.052845         0.101557
 C        -2.389521        -0.149929        -0.198308
 O        -3.318175        -0.297883         1.001766
 C        -3.046066         0.949812        -1.071401
 C        -4.560778         0.993940        -1.096120
 O        -4.697846         0.802256        -2.601079
 C        -3.216727         0.863630        -2.757311
 H         2.182207         0.735380        -0.253707
 H         2.084758        -0.208549         1.463685
 H         2.125633        -1.013957        -0.153936
 H        -2.563960        -1.093544        -0.675778
 H        -2.823376        -0.128574         1.812251
 H        -2.662828         1.982911        -0.729974
 H        -5.109163         0.172269        -0.584774
 H        -4.910984         1.965219        -0.595565
 H        -2.978984        -0.062221        -3.404924
 H        -2.952201         1.846147        -3.172297
