19
Iteration:  1239charge 0 multiplicity 1
 C         1.074447        -0.603679        -0.590066
 C        -0.364981        -0.483476        -0.398398
 C        -1.437582        -0.256747         0.071605
 C        -2.839936         0.013418         0.463907
 O        -2.971682         0.995261         1.460456
 C        -3.725018         0.347302        -0.739588
 C        -3.607440        -0.246752        -2.093200
 O        -3.342740         1.016417        -2.689111
 C        -3.418214         1.774316        -1.415191
 H         1.412697         0.339550        -0.802471
 H         1.498185        -1.015815         0.381261
 H         1.469284        -1.186470        -1.398622
 H        -3.139023        -0.951871         0.945482
 H        -2.479016         1.790216         1.082670
 H        -4.719258         0.217322        -0.361601
 H        -2.683420        -0.939890        -2.338717
 H        -4.572147        -0.691715        -2.452289
 H        -2.460700         2.300654        -1.217654
 H        -4.159379         2.603652        -1.285124
