19
Iteration:  3017
 C         1.703000        -0.195591         0.415509
 C         0.213600        -0.105686         0.298913
 C        -0.989410         0.067208         0.102798
 C        -2.389166        -0.157051        -0.192515
 O        -3.319678        -0.282927         1.002909
 C        -3.039893         0.979389        -1.075566
 C        -4.559628         0.954690        -1.093718
 O        -4.672432         0.793735        -2.580014
 C        -3.220461         0.887315        -2.752441
 H         2.218770         0.572417        -0.254787
 H         2.044834        -0.206928         1.471996
 H         2.094716        -1.061934        -0.224929
 H        -2.532066        -1.168695        -0.764405
 H        -2.715660        -0.122683         1.790066
 H        -2.720271         1.944462        -0.830856
 H        -5.091564         0.103496        -0.628269
 H        -4.933476         1.948227        -0.690874
 H        -2.949915         0.028997        -3.424357
 H        -2.887870         1.779672        -3.172625
