19
Iteration:   332charge 0 multiplicity 1
 C         1.186850         0.006491        -0.803636
 C        -0.100567        -0.054765         0.034700
 C        -1.246422         0.048431         0.520563
 C        -2.753640        -0.019153         0.388003
 O        -3.529236         0.256992         1.483479
 C        -3.007886         0.980726        -0.811082
 C        -4.432418         0.828011        -1.513355
 O        -3.911557         0.455861        -2.826993
 C        -2.585350         0.458426        -2.218476
 H         1.116672         0.188506        -1.938206
 H         1.825873         0.731563        -0.471550
 H         1.708164        -0.951197        -0.796529
 H        -2.879149        -1.030765        -0.091304
 H        -3.373844        -0.355806         2.230260
 H        -2.711983         2.036809        -0.540099
 H        -4.848368        -0.057558        -0.978061
 H        -5.174157         1.581806        -1.472344
 H        -2.197229        -0.530293        -2.451683
 H        -1.855221         1.166838        -2.661169
