19
Iteration:  4612
 C         1.369203         0.139194        -0.278123
 C        -0.072231        -0.174086        -0.116219
 C        -1.272724        -0.151251         0.113572
 C        -2.678209        -0.376036        -0.004926
 O        -3.380370        -0.549175         1.207240
 C        -3.208072         0.896543        -0.720586
 C        -4.591672         0.610564        -1.398377
 O        -3.927744         1.106141        -2.694956
 C        -2.664892         1.400955        -2.011471
 H         1.944199        -0.842752        -0.138869
 H         1.540282         0.635459        -1.300991
 H         1.721566         0.883893         0.400262
 H        -2.843166        -1.346137        -0.742122
 H        -2.639548        -0.718560         1.822701
 H        -3.388909         1.591381         0.274232
 H        -4.794077        -0.384394        -1.507538
 H        -5.489645         1.146640        -1.085121
 H        -1.930019         0.708669        -2.353595
 H        -2.481061         2.415765        -2.097592
