19
Iteration:  1367charge 0 multiplicity 1
 C         1.341069        -0.350760        -0.196815
 C        -0.107458        -0.350650        -0.118470
 C        -1.336364        -0.003784        -0.148809
 C        -2.773510        -0.085091         0.202544
 O        -2.949110         0.345343         1.547266
 C        -3.585870         0.784366        -0.719438
 C        -4.380308         0.084975        -1.781751
 O        -3.740719         0.827739        -2.861592
 C        -3.017283         1.582427        -1.929307
 H         1.727674         0.529695        -0.851707
 H         1.653186        -0.125548         0.816750
 H         1.690933        -1.385166        -0.459201
 H        -2.981586        -1.101936         0.111068
 H        -2.174452        -0.007334         1.966036
 H        -4.230206         1.210882         0.040660
 H        -4.118838        -1.012886        -1.863080
 H        -5.523010         0.257783        -1.916141
 H        -1.955159         1.534376        -2.118827
 H        -3.431842         2.565626        -1.918610
