19
Iteration:  2591charge 0 multiplicity 1
 C         1.401378        -0.221844        -0.288775
 C        -0.050198         0.080719        -0.167870
 C        -1.263119         0.008262         0.017270
 C        -2.728059        -0.104576         0.113997
 O        -3.230885        -0.091582         1.436721
 C        -3.399445         1.042748        -0.678064
 C        -4.622929         0.593685        -1.521457
 O        -3.820182         0.502009        -2.771019
 C        -2.729460         1.247304        -2.061555
 H         1.561672        -1.235755        -0.490721
 H         1.753574         0.339061        -1.169332
 H         2.026409        -0.097816         0.624373
 H        -3.195388        -0.956587        -0.421244
 H        -2.980117        -0.854801         1.969212
 H        -3.495410         1.970529        -0.137886
 H        -5.048678        -0.450630        -1.295667
 H        -5.442317         1.334298        -1.497587
 H        -1.794242         0.508828        -2.237905
 H        -2.570185         2.279131        -2.477529
