19
Iteration:  3326
 C         1.347587        -0.055930        -0.458469
 C        -0.050198        -0.145693         0.016238
 C        -1.281768        -0.066366         0.115746
 C        -2.725363        -0.175020         0.186786
 O        -3.398585        -0.069421         1.440528
 C        -3.197219         0.806660        -0.781977
 C        -4.532358         0.611145        -1.467026
 O        -3.935519         1.086396        -2.719828
 C        -2.623362         0.807245        -2.178905
 H         1.935267        -0.991261        -0.257946
 H         1.281546         0.398515        -1.471924
 H         1.904732         0.732568         0.020009
 H        -3.069515        -1.267252        -0.042247
 H        -3.516796         0.891036         1.676506
 H        -2.953227         1.746617        -0.342609
 H        -4.859075        -0.428083        -1.619282
 H        -5.417108         1.231574        -1.224158
 H        -2.203822        -0.226389        -2.612886
 H        -1.716097         1.419549        -2.357335
