19
Iteration:  2657charge 0 multiplicity 1
 C         1.390100        -0.133445        -0.020951
 C        -0.036983        -0.245229        -0.071933
 C        -1.249137        -0.175033        -0.174911
 C        -2.700175        -0.087366        -0.002752
 O        -3.058597        -0.090766         1.392529
 C        -3.376127         1.063958        -0.747521
 C        -4.704142         0.635090        -1.459400
 O        -3.914562         0.511726        -2.749273
 C        -2.855593         1.360598        -2.147440
 H         1.879246        -0.976945         0.411653
 H         1.748973        -0.005937        -1.086102
 H         1.745886         0.859996         0.470721
 H        -3.016636        -1.132275        -0.412332
 H        -2.274332         0.259207         1.873051
 H        -3.413524         1.957890        -0.125013
 H        -5.229391        -0.360091        -1.268671
 H        -5.409889         1.480897        -1.518499
 H        -1.837207         0.888789        -2.413230
 H        -2.943531         2.411122        -2.251360
