19
Iteration:    94
 C         1.468239        -0.503520         0.443127
 C         0.199483        -0.025514         0.133463
 C        -0.994308         0.123263        -0.137302
 C        -2.515697         0.012207        -0.004914
 O        -2.775565         0.517040         1.430669
 C        -3.401701         0.753997        -1.052919
 C        -4.713221         0.055176        -1.508217
 O        -4.521438         0.805979        -2.761244
 C        -3.130018         1.097840        -2.532400
 H         2.081566        -0.120002         1.353871
 H         1.234818        -1.598036         0.565854
 H         1.999770        -0.370730        -0.506977
 H        -2.804479        -1.081125        -0.039472
 H        -2.339786         1.409838         1.448711
 H        -3.564528         1.752458        -0.537041
 H        -4.622847        -1.082046        -1.649115
 H        -5.611405         0.565212        -0.980801
 H        -2.510130         0.252632        -3.058870
 H        -2.773568         2.121276        -2.923138
