19
Iteration:  3602charge 0 multiplicity 1
 C         1.481759        -0.209553         0.737913
 C         0.103923        -0.050079         0.168771
 C        -1.020680        -0.119213        -0.231157
 C        -2.421239        -0.060451        -0.397226
 O        -3.039128        -0.280709         0.904106
 C        -3.005340         1.138903        -1.151743
 C        -4.538071         1.200530        -1.061854
 O        -4.650917         0.572504        -2.383776
 C        -3.243456         0.755682        -2.584104
 H         1.672739         0.611281         1.539213
 H         1.431973        -1.194310         1.311044
 H         2.122912        -0.386239        -0.163709
 H        -2.714361        -0.988469        -1.096912
 H        -2.542851         0.149421         1.600674
 H        -2.392248         1.999878        -0.985656
 H        -4.845939         0.686627        -0.185238
 H        -4.852860         2.289472        -1.188982
 H        -2.798762        -0.047696        -3.097294
 H        -3.044448         1.485915        -3.358922
