19
Iteration:  1128
 C         0.668363        -0.856432        -1.142383
 C        -0.412984        -0.379690        -0.381547
 C        -1.339675         0.070916         0.351649
 C        -2.756873         0.049067         0.701938
 O        -3.363786         1.198003         1.512521
 C        -3.409743         0.177820        -0.685210
 C        -2.964196        -0.202495        -2.104116
 O        -3.295828         1.093677        -2.762213
 C        -3.552853         1.586251        -1.374276
 H         1.535515        -0.287294        -1.060762
 H         0.970814        -1.814989        -0.527959
 H         0.192077        -1.384531        -2.002033
 H        -2.997268        -0.952910         1.051491
 H        -3.342827         0.848946         2.394757
 H        -4.417138        -0.203593        -0.651816
 H        -1.820347        -0.506716        -2.360396
 H        -3.677931        -0.923925        -2.632343
 H        -2.802978         2.307888        -0.957162
 H        -4.556281         2.117199        -1.165146
