19
Iteration:  2447charge 0 multiplicity 1
 C         1.484656         0.133179         0.148656
 C         0.071941         0.023984        -0.214991
 C        -1.138390        -0.136721        -0.018992
 C        -2.673769        -0.249657         0.071113
 O        -3.089480        -0.173183         1.426002
 C        -3.241475         0.797033        -0.890832
 C        -4.724644         0.964517        -1.439918
 O        -4.155074         1.127425        -2.757624
 C        -2.955357         0.413395        -2.348734
 H         2.166988         0.118672        -0.640701
 H         1.479296         1.138686         0.670746
 H         1.717580        -0.728798         0.852241
 H        -2.852709        -1.294679        -0.439902
 H        -2.378613        -0.577005         1.950549
 H        -2.914183         1.780925        -0.589198
 H        -5.308833        -0.042519        -1.296702
 H        -5.264294         1.901767        -1.153799
 H        -3.296860        -0.560564        -2.508152
 H        -2.021270         0.815619        -2.743903
