19
Iteration:  3117
 C         1.411732        -0.207787         0.129252
 C         0.059384        -0.181993        -0.195750
 C        -1.158527        -0.022321        -0.090106
 C        -2.647003        -0.141430        -0.004575
 O        -2.978025         0.003399         1.404209
 C        -3.362352         1.021625        -0.783316
 C        -4.783777         0.745294        -1.480779
 O        -4.072117         0.541722        -2.779192
 C        -2.890302         1.172394        -2.225891
 H         2.157307        -0.187253        -0.784958
 H         1.660301         0.651018         0.886444
 H         1.653386        -1.294666         0.587126
 H        -3.057266        -1.049248        -0.360880
 H        -2.914475        -0.779597         1.944400
 H        -3.346301         1.887948        -0.176602
 H        -5.316277        -0.078523        -0.937201
 H        -5.434112         1.656045        -1.688302
 H        -1.963385         0.797848        -2.732706
 H        -2.888634         2.198962        -2.454709
