19
Iteration:   500charge 0 multiplicity 1
 C         1.608829        -0.185495         0.630424
 C         0.223640         0.010340        -0.017935
 C        -1.014790         0.034236        -0.100620
 C        -2.524068        -0.108524        -0.034237
 O        -2.899879         0.375665         1.281454
 C        -3.193621         0.786708        -1.165933
 C        -4.708014         0.774636        -1.167524
 O        -4.612959         0.657907        -2.756408
 C        -3.191461         0.458390        -2.695547
 H         2.095290        -1.129469         0.311198
 H         2.275321         0.639416         0.438583
 H         1.416182        -0.375967         1.674757
 H        -2.963654        -1.151733        -0.095728
 H        -2.811730         1.343099         1.225429
 H        -2.910957         1.906742        -0.888290
 H        -5.131603        -0.142128        -0.750621
 H        -5.188406         1.707145        -0.813943
 H        -2.891779        -0.572518        -2.939169
 H        -2.801928         1.158842        -3.481848
