19
Iteration:  4328
 C         1.585786        -0.015436         0.483860
 C         0.175675        -0.056679         0.207145
 C        -0.988059        -0.181259        -0.006790
 C        -2.428531        -0.316123        -0.322626
 O        -3.022927        -0.694974         1.056611
 C        -3.145627         0.839165        -1.037845
 C        -4.680304         0.896013        -1.206023
 O        -4.586866         1.460044        -2.519810
 C        -3.228464         0.937099        -2.602734
 H         2.125411         0.860746        -0.032595
 H         1.809428        -0.156381         1.585982
 H         2.140383        -0.780860         0.106037
 H        -2.460316        -1.341062        -0.931990
 H        -3.081480         0.078270         1.687219
 H        -2.738270         1.772841        -0.873674
 H        -5.300127        -0.043361        -1.045768
 H        -5.133046         1.650529        -0.523513
 H        -3.202712        -0.134273        -3.138499
 H        -2.605522         1.777030        -3.130186
