19
Iteration:  4305
 C         1.587340         0.014662         0.522446
 C         0.184621        -0.098921         0.266025
 C        -0.991319        -0.065346        -0.149837
 C        -2.456822        -0.408654        -0.287087
 O        -3.117441        -0.629584         0.889634
 C        -3.100592         0.778579        -1.040555
 C        -4.557466         0.987158        -1.048232
 O        -4.587384         1.426608        -2.463073
 C        -3.239037         0.861526        -2.622001
 H         1.953038         1.065686         0.273707
 H         1.764285        -0.306407         1.588379
 H         2.234585        -0.551557        -0.007234
 H        -2.482185        -1.452547        -0.904940
 H        -3.198907         0.137959         1.448783
 H        -2.618318         1.694293        -0.772824
 H        -5.097898        -0.029589        -0.986592
 H        -4.991963         1.565291        -0.257887
 H        -3.407173        -0.194628        -3.112978
 H        -2.716799         1.650245        -3.314221
