19
Iteration:   522charge 0 multiplicity 1
 C         1.515088        -0.270689         0.684366
 C         0.243510         0.032676         0.247500
 C        -0.847953         0.178358        -0.239900
 C        -2.317564         0.096901        -0.133902
 O        -2.899816         0.251198         1.226994
 C        -3.152996         0.835868        -1.158939
 C        -4.763884         0.756380        -1.234806
 O        -4.726698         0.683341        -2.744930
 C        -3.318350         0.321405        -2.611016
 H         1.716253        -1.269613         0.269089
 H         2.202000         0.388845         0.237985
 H         1.639056        -0.408840         1.736624
 H        -2.635568        -0.944010        -0.392353
 H        -2.661111         1.198693         1.376783
 H        -2.810102         1.966081        -1.121041
 H        -5.192417        -0.154319        -0.794325
 H        -5.285074         1.683664        -0.948073
 H        -3.200827        -0.679091        -2.977930
 H        -2.755906         1.021853        -3.271420
