19
Iteration:  4167charge 0 multiplicity 1
 C         1.387640         0.087246         0.567570
 C         0.082054        -0.157817         0.012319
 C        -1.054979        -0.258151        -0.183492
 C        -2.441600        -0.396751        -0.348491
 O        -3.163495        -0.496547         0.885504
 C        -2.964565         1.014095        -1.008184
 C        -4.473427         1.214053        -0.954826
 O        -4.569244         0.930066        -2.417446
 C        -3.106023         0.964555        -2.569669
 H         1.186351         0.509862         1.565005
 H         1.912959        -0.889806         0.528116
 H         1.889833         0.911756        -0.027946
 H        -2.912498        -1.188520        -1.086056
 H        -2.609824        -1.131914         1.386141
 H        -2.187438         1.781826        -0.597596
 H        -4.955809         0.573103        -0.315302
 H        -4.881629         2.143468        -0.543521
 H        -2.882140        -0.007527        -3.087361
 H        -2.706365         1.901263        -3.030146
