19
Iteration:  1718
 C         1.467465        -0.480850         0.793056
 C         0.248408         0.109168         0.301330
 C        -0.827413         0.430654        -0.189507
 C        -2.321733         0.084187        -0.243264
 O        -2.871542        -0.010798         1.085369
 C        -3.123807         0.939354        -1.242001
 C        -4.663294         0.977448        -1.219116
 O        -4.842193         0.642679        -2.635945
 C        -3.355910         0.387306        -2.656337
 H         1.820715        -1.164471        -0.121040
 H         2.346800         0.069053         1.006972
 H         1.108622        -0.993447         1.708380
 H        -2.436093        -0.822004        -0.646038
 H        -2.224172         0.440224         1.609427
 H        -2.549111         1.852351        -1.202394
 H        -5.214266         0.256077        -0.618095
 H        -5.131442         1.848125        -0.923575
 H        -3.273950        -0.756423        -2.689474
 H        -2.831159         0.963211        -3.381819
