19
Iteration:  3804
 C         1.401736        -0.084381        -0.426121
 C        -0.016722        -0.049759        -0.013890
 C        -1.245194        -0.193715         0.296112
 C        -2.709926        -0.187064         0.147405
 O        -3.425374        -0.023729         1.440251
 C        -3.267405         0.816947        -0.788944
 C        -4.527275         0.503556        -1.555932
 O        -4.006136         1.123264        -2.720086
 C        -2.615032         0.957523        -2.236167
 H         1.502292         0.060167        -1.501628
 H         1.969225         0.638543         0.168246
 H         1.764921        -1.254108        -0.389552
 H        -2.918520        -1.132257        -0.250119
 H        -2.850933        -0.058916         2.200864
 H        -3.251155         1.888529        -0.426536
 H        -4.627497        -0.544909        -1.808608
 H        -5.448479         0.991594        -1.220083
 H        -2.206028         0.029336        -2.583781
 H        -1.989195         1.803997        -2.293849
