19
Iteration:  3446charge 0 multiplicity 1
 C         1.445925         0.000851         0.473871
 C         0.117265        -0.156838         0.022688
 C        -1.087963        -0.288509        -0.170168
 C        -2.536603        -0.216174        -0.137282
 O        -3.028101        -0.051778         1.250665
 C        -3.080307         0.954617        -1.036098
 C        -4.577819         1.083916        -1.206833
 O        -4.523388         0.889580        -2.668397
 C        -3.056194         0.664961        -2.581932
 H         1.503603        -0.282475         1.661710
 H         2.229816        -0.594916        -0.076192
 H         1.800116         1.039204         0.514188
 H        -2.950090        -1.120893        -0.691821
 H        -3.032264        -0.962139         1.601004
 H        -2.545126         1.828664        -0.839132
 H        -5.074048         0.294939        -0.584100
 H        -5.067610         1.968283        -0.756856
 H        -2.923089        -0.361877        -2.885464
 H        -2.524520         1.434622        -3.165805
