19
Iteration:  2197
 C         1.674503        -0.307294         0.509769
 C         0.183602        -0.180277         0.325776
 C        -0.972274         0.007831         0.071238
 C        -2.413349        -0.029202        -0.205094
 O        -3.124136         0.333671         0.984181
 C        -3.100709         0.940952        -1.184076
 C        -4.651691         0.754255        -1.144169
 O        -4.687758         0.658289        -2.596915
 C        -3.243732         0.718197        -2.682450
 H         1.968786         0.424031         1.200743
 H         2.072760        -1.324605         0.793108
 H         2.082203        -0.034791        -0.475445
 H        -2.646927        -1.164169        -0.559390
 H        -2.526953        -0.001189         1.700945
 H        -2.797776         1.910615        -0.795371
 H        -4.844304        -0.243929        -0.856240
 H        -5.196024         1.596946        -0.770796
 H        -2.773705        -0.240048        -3.001901
 H        -2.791194         1.522306        -3.256292
