19
Iteration:  3775charge 0 multiplicity 1
 C         1.408626        -0.129472        -0.289720
 C        -0.016937        -0.115997         0.029742
 C        -1.250407         0.097671         0.193224
 C        -2.597680        -0.228549         0.127993
 O        -3.333692        -0.137891         1.411204
 C        -3.295707         0.816986        -0.829499
 C        -4.604012         0.677029        -1.462017
 O        -4.072395         1.088452        -2.797530
 C        -2.641416         0.857454        -2.272769
 H         1.446670         0.438953        -1.258275
 H         1.963858         0.251123         0.585813
 H         1.621331        -1.146026        -0.229434
 H        -2.658497        -1.283043        -0.439354
 H        -2.687151        -0.268029         2.157225
 H        -3.041922         1.773837        -0.379541
 H        -5.078483        -0.369302        -1.603701
 H        -5.420779         1.327674        -1.110795
 H        -2.457267        -0.201025        -2.640999
 H        -1.935577         1.736132        -2.383264
