19
Iteration:  2747charge 0 multiplicity 1
 C         1.578452        -0.203640         0.091520
 C         0.149349         0.100451         0.251234
 C        -1.049190        -0.054278         0.107626
 C        -2.477970        -0.158387        -0.033242
 O        -3.215779        -0.430255         1.148034
 C        -3.230791         1.011907        -0.895307
 C        -4.711632         0.846972        -1.328383
 O        -4.386567         0.999054        -2.693211
 C        -2.983512         0.867062        -2.471893
 H         2.106147        -0.563191         0.984955
 H         1.838002        -0.903312        -0.752569
 H         2.019320         0.672139        -0.299073
 H        -2.772845        -0.983975        -0.769005
 H        -2.897278         0.187185         1.815384
 H        -3.019203         2.055495        -0.558213
 H        -5.067806        -0.178561        -1.078932
 H        -5.366400         1.637296        -0.928009
 H        -2.846221        -0.251506        -2.834116
 H        -2.370273         1.465496        -3.037608
