19
Iteration:  4841
 C         1.535802        -0.126947         0.560433
 C         0.161956        -0.093995         0.080247
 C        -1.023068         0.013020        -0.111357
 C        -2.399759        -0.267125        -0.333659
 O        -3.152444        -0.730827         0.756267
 C        -3.050443         1.013242        -0.947662
 C        -4.583249         1.142754        -0.999373
 O        -4.660397         0.899034        -2.424726
 C        -3.137991         1.075836        -2.555374
 H         1.787722         0.588217         1.418982
 H         1.748700        -1.153989         1.054360
 H         2.330472        -0.036316        -0.122479
 H        -2.493220        -1.109266        -1.186669
 H        -2.953748        -0.244743         1.566820
 H        -2.682509         1.932047        -0.564436
 H        -5.178508         0.471174        -0.471016
 H        -4.902020         2.350125        -1.024717
 H        -2.569405         0.318609        -3.074467
 H        -2.846102         2.248654        -2.759422
