19
Iteration:  3420
 C         1.440293         0.067274         0.314275
 C        -0.006307        -0.201737         0.112205
 C        -1.168147        -0.421875        -0.189427
 C        -2.612526        -0.228575        -0.126770
 O        -2.946249         0.008984         1.257063
 C        -3.159066         0.959124        -0.920919
 C        -4.675131         1.001344        -1.316181
 O        -4.339883         0.962768        -2.709835
 C        -2.955395         0.667825        -2.413794
 H         1.862561        -0.282272         1.310107
 H         2.103512        -0.226433        -0.511142
 H         1.693166         1.154103         0.347623
 H        -3.147958        -1.159050        -0.694402
 H        -2.815979        -0.866128         1.679381
 H        -2.724417         1.962593        -0.485500
 H        -5.237718         0.211771        -0.731096
 H        -5.178758         1.921555        -0.995813
 H        -2.818866        -0.420748        -2.614033
 H        -2.234160         1.198392        -3.105114
