19
Iteration:  2899
 C         1.314362         0.383057         0.712341
 C         0.140803        -0.244070         0.071338
 C        -0.967780        -0.658698        -0.229815
 C        -2.446617        -0.549032        -0.273710
 O        -2.964269        -0.151799         1.004935
 C        -2.961330         0.771185        -1.243002
 C        -4.429227         1.256335        -1.009649
 O        -4.651241         1.181503        -2.426488
 C        -3.348078         0.646083        -2.717227
 H         1.047628         1.380183         1.038889
 H         1.523545        -0.305059         1.600027
 H         2.260495         0.723053         0.136323
 H        -2.917982        -1.496781        -0.589360
 H        -2.355094        -0.301383         1.726759
 H        -2.317521         1.594269        -0.980252
 H        -5.224817         0.720088        -0.366778
 H        -4.441513         2.306495        -0.649517
 H        -3.465359        -0.435190        -2.917383
 H        -2.603814         1.230423        -3.517385
