19
Iteration:  3594charge 0 multiplicity 1
 C         1.444670        -0.259744         0.754612
 C         0.187034         0.007545         0.139190
 C        -0.976178        -0.154250        -0.192639
 C        -2.383337        -0.023453        -0.368797
 O        -3.053546        -0.315978         0.879094
 C        -2.970969         1.169482        -1.187130
 C        -4.555176         1.229378        -1.076068
 O        -4.716096         0.563721        -2.374984
 C        -3.267336         0.734410        -2.604714
 H         1.819302         0.422742         1.443759
 H         1.338814        -1.198792         1.338163
 H         2.399510        -0.158649         0.030761
 H        -2.759273        -0.938410        -0.988679
 H        -2.661802         0.144559         1.615141
 H        -2.549225         2.208451        -0.968774
 H        -5.098736         0.659223        -0.330236
 H        -4.930585         2.298052        -1.183183
 H        -2.761017        -0.269247        -2.887663
 H        -2.948899         1.570606        -3.245192
