19
Iteration:  3427charge 0 multiplicity 1
 C         1.526631         0.068600         0.392941
 C         0.017504        -0.180598         0.073273
 C        -1.173894        -0.411620        -0.176314
 C        -2.669019        -0.223100        -0.137549
 O        -2.935408        -0.021497         1.233432
 C        -3.081097         0.992992        -0.973694
 C        -4.657023         1.011581        -1.265204
 O        -4.382360         0.954337        -2.687947
 C        -2.998212         0.646178        -2.458720
 H         1.836693        -0.281671         1.308434
 H         2.040190        -0.479596        -0.402368
 H         1.572362         1.183512         0.439265
 H        -3.159806        -1.050557        -0.514109
 H        -2.908378        -0.908614         1.574407
 H        -2.746446         1.923093        -0.542057
 H        -5.283734         0.220273        -0.855966
 H        -5.280851         1.931234        -1.163594
 H        -2.817920        -0.472061        -2.482932
 H        -2.454081         1.323088        -3.077906
