19
Iteration:  4493
 C         1.450165        -0.046804        -0.230144
 C        -0.046070        -0.011774        -0.110156
 C        -1.254718        -0.117949        -0.033746
 C        -2.676627        -0.146919        -0.079152
 O        -3.330975        -0.751374         1.191327
 C        -3.433481         1.120392        -0.586938
 C        -4.595857         0.742377        -1.412724
 O        -3.854338         0.738300        -2.713066
 C        -2.728686         1.514593        -1.954507
 H         1.760172        -0.707240        -1.088529
 H         1.942568         0.961624        -0.152978
 H         1.901346        -0.474555         0.650313
 H        -2.808009        -0.861814        -0.798768
 H        -2.628277        -0.753978         1.881813
 H        -3.443629         1.930100         0.093211
 H        -4.881125        -0.384642        -1.222303
 H        -5.427023         1.388914        -1.267797
 H        -1.810277         0.935055        -2.117934
 H        -2.929239         2.667947        -2.269992
