19
Iteration:  1083
 C         0.915447        -0.801364        -0.922383
 C        -0.262290        -0.336714        -0.235493
 C        -1.444995        -0.043271         0.089352
 C        -2.822578         0.014027         0.522126
 O        -3.050243         1.134624         1.440886
 C        -3.765327         0.237353        -0.675359
 C        -3.289125        -0.272586        -2.096134
 O        -3.232085         1.101198        -2.618704
 C        -3.566989         1.656510        -1.393988
 H         1.804175        -0.128544        -0.868873
 H         1.439623        -1.776365        -0.709996
 H         0.633744        -0.886945        -2.011437
 H        -3.071478        -0.925394         1.032776
 H        -3.956274         0.976115         1.721286
 H        -4.788298        -0.042281        -0.376464
 H        -2.260026        -0.820736        -2.014009
 H        -4.020680        -1.013206        -2.551835
 H        -2.694209         2.169308        -0.925291
 H        -4.416255         2.433299        -1.419740
