19
Iteration:  4993
 C         1.527851        -0.212776         0.337498
 C         0.083434        -0.089240         0.195906
 C        -1.054232        -0.006605        -0.205824
 C        -2.547043        -0.250881        -0.258699
 O        -3.011124        -0.412329         1.069518
 C        -3.270614         0.897076        -0.836720
 C        -4.738048         0.753988        -1.268823
 O        -4.389457         1.069130        -2.641312
 C        -3.020694         1.250982        -2.337938
 H         2.112836         0.323722        -0.478079
 H         2.082958         0.122771         1.294712
 H         1.845058        -1.215150         0.238351
 H        -2.672494        -1.214224        -0.896402
 H        -2.726449        -1.207846         1.528486
 H        -3.033599         1.730782        -0.222208
 H        -5.330579        -0.342041        -0.921167
 H        -5.315013         1.544696        -0.848064
 H        -2.386129         0.546240        -3.035072
 H        -2.651894         2.256067        -2.549444
