19
Iteration:   648charge 0 multiplicity 1
 C         1.415601         0.128871         0.631281
 C         0.082396        -0.197951         0.265775
 C        -1.043807        -0.219258        -0.227795
 C        -2.483566        -0.115492        -0.249921
 O        -3.001658         0.120465         1.056788
 C        -2.956334         1.048683        -1.253753
 C        -4.488609         1.180613        -1.181749
 O        -4.704356         0.353437        -2.345564
 C        -3.152786         0.503885        -2.704188
 H         1.999134        -0.593626         1.247822
 H         2.080676         0.259994        -0.311344
 H         1.267310         1.179287         0.972183
 H        -2.977412        -1.111518        -0.673676
 H        -2.257801        -0.027519         1.725235
 H        -2.301811         1.862231        -1.073340
 H        -5.156110         1.003371        -0.301325
 H        -4.769775         2.241649        -1.440603
 H        -2.667049        -0.477886        -2.953811
 H        -3.118178         1.269481        -3.452490
