19
Iteration:  1577
 C         1.279712         0.381274         0.323688
 C         0.002511        -0.246425         0.044324
 C        -1.255431        -0.341211        -0.157741
 C        -2.735134        -0.271797        -0.121569
 O        -3.127121        -0.175344         1.231085
 C        -2.882157         0.936262        -1.051037
 C        -4.301011         1.413501        -1.225328
 O        -4.396984         0.686102        -2.503452
 C        -3.007654         0.357126        -2.556007
 H         1.659134         0.676909        -0.646867
 H         1.175879         1.337985         0.680510
 H         2.019624        -0.078443         0.951105
 H        -3.225814        -1.282201        -0.427513
 H        -2.369429        -0.003783         1.771952
 H        -2.063711         1.626770        -0.883981
 H        -4.974770         1.231639        -0.366712
 H        -4.412395         2.547090        -1.435418
 H        -2.879123        -0.719683        -2.543644
 H        -2.476041         0.883149        -3.343382
