19
Iteration:  2217charge 0 multiplicity 1
 C         1.631934        -0.369006         0.534495
 C         0.279316         0.033303         0.284690
 C        -0.904217         0.061580        -0.034408
 C        -2.417910         0.048225        -0.204496
 O        -3.232736         0.110118         0.998613
 C        -3.085091         1.047674        -1.211845
 C        -4.612322         0.829372        -1.092736
 O        -4.671041         0.680192        -2.567120
 C        -3.240472         0.570567        -2.671982
 H         2.085511         0.207125         1.276849
 H         1.541670        -1.374165         1.107258
 H         2.123757        -0.466522        -0.468076
 H        -2.673476        -0.898117        -0.813019
 H        -2.701247         0.022757         1.830682
 H        -2.666607         2.028817        -0.992541
 H        -4.893462        -0.098654        -0.608671
 H        -5.156249         1.710949        -0.805622
 H        -2.839070        -0.521515        -2.764324
 H        -2.899436         1.254924        -3.445233
