19
Iteration:  3651charge 0 multiplicity 1
 C         1.551671         0.010337         0.551013
 C         0.099531        -0.284784         0.171980
 C        -1.074421        -0.449062        -0.122375
 C        -2.536149        -0.206122        -0.281717
 O        -3.081420        -0.080667         1.033888
 C        -2.987345         1.090495        -1.074205
 C        -4.556366         1.131801        -1.146553
 O        -4.569519         0.594927        -2.537577
 C        -3.175054         0.972141        -2.578151
 H         1.546296         1.043274         0.681961
 H         1.799767        -0.469626         1.487966
 H         2.208695        -0.406811        -0.298890
 H        -3.077920        -1.002202        -0.869673
 H        -2.379445        -0.214267         1.723813
 H        -2.539021         2.011921        -0.566859
 H        -5.196633         0.389621        -0.519280
 H        -4.959421         2.138073        -1.077819
 H        -2.526715         0.288078        -3.249050
 H        -3.042780         1.955901        -3.026063
