19
Iteration:  1974charge 0 multiplicity 1
 C         1.145615        -0.098899        -0.714711
 C        -0.089713        -0.012818         0.092208
 C        -1.203114         0.038680         0.498025
 C        -2.712145        -0.078931         0.319891
 O        -3.601982         0.280271         1.377508
 C        -2.901455         0.909188        -0.952816
 C        -4.343713         0.860510        -1.343206
 O        -3.969320         0.492123        -2.683587
 C        -2.598628         0.439757        -2.339724
 H         1.743582        -1.021242        -0.636472
 H         0.621213        -0.173157        -1.783063
 H         1.751750         0.840468        -0.711651
 H        -3.119750        -1.010583         0.154763
 H        -3.268946         1.031051         1.858799
 H        -2.542357         1.957154        -0.780646
 H        -5.056113         0.199839        -0.796742
 H        -4.940989         1.774691        -1.221759
 H        -2.230831        -0.587708        -2.352431
 H        -2.090732         1.096427        -3.054209
