19
Iteration:  1098charge 0 multiplicity 1
 C         0.876349        -0.838071        -1.060019
 C        -0.290476        -0.376436        -0.304334
 C        -1.338234         0.032594         0.288638
 C        -2.831854         0.077452         0.464098
 O        -3.166933         1.149438         1.394633
 C        -3.720105         0.259656        -0.756755
 C        -3.166189        -0.278170        -2.018179
 O        -3.261289         1.047380        -2.646337
 C        -3.562612         1.641626        -1.249755
 H         1.662074        -0.111808        -0.913010
 H         1.057788        -1.869840        -0.487527
 H         0.511408        -1.115161        -2.059193
 H        -3.044254        -0.909562         0.862382
 H        -3.910719         0.835064         2.000033
 H        -4.760741        -0.003850        -0.567483
 H        -2.084126        -0.570781        -1.959482
 H        -3.719776        -0.929073        -2.666979
 H        -2.724462         2.224404        -0.800665
 H        -4.416852         2.284034        -1.259363
