19
Iteration:  1733
 C         1.384994        -0.561638         0.692231
 C         0.173760         0.157242         0.244822
 C        -0.917715         0.521254        -0.160918
 C        -2.277059         0.085783        -0.210134
 O        -2.866644         0.046764         1.136343
 C        -3.141441         0.893598        -1.232780
 C        -4.657754         0.869578        -1.175124
 O        -4.713509         0.696199        -2.619826
 C        -3.325880         0.367572        -2.705626
 H         1.690372        -1.424898         0.096487
 H         2.145207         0.255648         0.901916
 H         1.246567        -1.088306         1.650844
 H        -2.146572        -1.067832        -0.498905
 H        -2.245319         0.431398         1.812607
 H        -2.868033         2.010244        -1.278408
 H        -5.035841         0.008873        -0.601396
 H        -5.067172         1.912874        -0.897509
 H        -3.098327        -0.770109        -2.857990
 H        -2.923100         1.018559        -3.557700
