19
Iteration:  3669charge 0 multiplicity 1
 C         1.485094         0.016027         0.438448
 C         0.166334        -0.295359         0.065885
 C        -1.064435        -0.453561        -0.062596
 C        -2.549119        -0.230985        -0.220993
 O        -3.167565        -0.031477         1.116884
 C        -3.093533         1.036770        -1.030917
 C        -4.623452         1.043750        -1.148891
 O        -4.487851         0.688196        -2.544484
 C        -3.037797         1.005895        -2.607541
 H         1.845357         1.100177         0.454158
 H         1.629071        -0.210671         1.525711
 H         2.257764        -0.394936        -0.313928
 H        -3.017242        -1.205105        -0.646412
 H        -2.492358        -0.487378         1.694690
 H        -2.572018         1.867395        -0.552888
 H        -5.102296         0.280530        -0.622114
 H        -5.088300         2.079854        -1.187159
 H        -2.376294         0.273941        -3.001670
 H        -2.717758         1.864134        -3.240174
