19
Iteration:  3674
 C         1.495082         0.027248         0.416028
 C         0.151415        -0.287821         0.041336
 C        -1.070158        -0.407140        -0.068272
 C        -2.557512        -0.236196        -0.194384
 O        -3.169919        -0.028411         1.123130
 C        -3.080117         1.017237        -1.021099
 C        -4.590842         1.051549        -1.150993
 O        -4.461587         0.701371        -2.579321
 C        -3.039736         0.971687        -2.572896
 H         1.599848         1.096460         0.356410
 H         1.634225        -0.281992         1.450145
 H         2.174348        -0.579191        -0.252979
 H        -3.015990        -1.141182        -0.674684
 H        -2.639078        -0.497413         1.770628
 H        -2.654328         1.877582        -0.425034
 H        -5.238271         0.176274        -0.744580
 H        -5.110160         1.991265        -0.985699
 H        -2.325128         0.199336        -3.036770
 H        -2.737463         1.901876        -3.087936
