19
Iteration:  2330
 C         1.541111         0.064329         0.569818
 C         0.169628        -0.192537         0.225773
 C        -1.009931        -0.214689        -0.055252
 C        -2.467782        -0.280144        -0.283466
 O        -3.204433         0.083962         0.964703
 C        -2.906122         0.877822        -1.194812
 C        -4.479194         1.064770        -1.043320
 O        -4.677408         0.850610        -2.482794
 C        -3.237007         0.535181        -2.716113
 H         1.860812         1.050739         0.142943
 H         1.738462         0.191538         1.691639
 H         2.220209        -0.650257         0.127951
 H        -2.819370        -1.238565        -0.524409
 H        -2.811928        -0.435551         1.725320
 H        -2.365102         1.819434        -1.038825
 H        -5.017658         0.406294        -0.362892
 H        -4.838434         2.093000        -0.876064
 H        -3.120810        -0.582035        -2.844817
 H        -2.789974         1.294095        -3.319226
