19
Iteration:  1463
 C         1.451788        -0.124018        -0.428529
 C         0.018134        -0.104663         0.018407
 C        -1.139519        -0.040798         0.358382
 C        -2.609628        -0.084066         0.210373
 O        -3.474791        -0.012969         1.419336
 C        -3.277110         0.884323        -0.822499
 C        -4.537032         0.424664        -1.532664
 O        -4.062077         1.034603        -2.827257
 C        -2.702660         0.906933        -2.238343
 H         1.630667         0.318974        -1.410202
 H         1.958142         0.452818         0.262666
 H         1.727314        -1.162419        -0.267753
 H        -2.810162        -1.128814        -0.263442
 H        -3.122432         0.480981         2.143654
 H        -3.270886         1.880139        -0.335676
 H        -4.711756        -0.680732        -1.569481
 H        -5.522316         0.782785        -1.257156
 H        -2.320255        -0.156035        -2.373860
 H        -2.131348         1.687947        -2.700628
