19
Iteration:  1307
 C         1.188639        -0.388140        -0.171419
 C        -0.212398        -0.329152        -0.199109
 C        -1.466446        -0.337239        -0.217967
 C        -2.755770        -0.137072         0.277742
 O        -2.638316         0.753417         1.444979
 C        -3.779989         0.539194        -0.681003
 C        -4.215122        -0.055558        -2.033298
 O        -3.474187         0.882744        -2.832769
 C        -3.280157         1.732820        -1.626531
 H         1.548566         0.495972        -0.608753
 H         1.567207        -0.466907         0.875958
 H         1.697348        -1.133269        -0.739970
 H        -3.366697        -0.984747         0.607920
 H        -1.998145         0.268992         2.006480
 H        -4.658090         0.876406        -0.074384
 H        -3.846363        -1.154389        -2.107296
 H        -5.337623        -0.037519        -2.262881
 H        -2.276018         2.216592        -1.544395
 H        -3.954877         2.619850        -1.661777
