19
Iteration:  2622
 C         1.329365        -0.228190        -0.152197
 C        -0.096022         0.003888        -0.118385
 C        -1.313556         0.035001        -0.108320
 C        -2.707752        -0.102699         0.114552
 O        -2.958271        -0.172282         1.524723
 C        -3.505777         1.016847        -0.726954
 C        -4.761135         0.739730        -1.668620
 O        -3.790886         0.433483        -2.720583
 C        -2.761426         1.276901        -2.078525
 H         1.606263        -1.288399        -0.168305
 H         1.621528         0.089156        -1.161019
 H         1.956282         0.453937         0.661036
 H        -3.157464        -1.072554        -0.471681
 H        -2.228443        -0.667599         1.954146
 H        -3.555756         1.922639        -0.155647
 H        -5.511285        -0.097713        -1.649802
 H        -5.347176         1.689152        -1.767766
 H        -1.770329         0.766135        -2.339635
 H        -2.532586         2.276040        -2.421901
