19
Iteration:  1548charge 0 multiplicity 1
 C         1.373062         0.364827         0.088829
 C        -0.004228        -0.079853        -0.079270
 C        -1.203032        -0.523882         0.078217
 C        -2.698940        -0.326053         0.027835
 O        -3.282966        -0.202353         1.300371
 C        -2.935222         0.937896        -0.915159
 C        -4.425456         1.337079        -1.366701
 O        -4.327262         0.774515        -2.668535
 C        -2.922773         0.450276        -2.410706
 H         1.756813         0.544782        -0.926800
 H         1.632188         1.378079         0.723563
 H         2.134281        -0.389451         0.457697
 H        -3.204708        -1.184530        -0.306222
 H        -2.661379         0.321093         1.876382
 H        -2.172225         1.706253        -0.639275
 H        -5.241695         0.930624        -0.738710
 H        -4.364258         2.386081        -1.561058
 H        -2.789533        -0.632713        -2.409171
 H        -2.253039         1.000056        -3.186312
