19
Iteration:   825
 C         1.295484        -0.230959        -0.472412
 C        -0.062447         0.231147        -0.161552
 C        -1.157253         0.085596         0.289286
 C        -2.629041        -0.098525         0.357405
 O        -3.413214         0.186058         1.500330
 C        -3.218693         0.714116        -0.823319
 C        -4.499054         0.267744        -1.604527
 O        -4.005038         0.988109        -2.720046
 C        -2.616849         0.862918        -2.219620
 H         1.942216        -0.187629         0.437548
 H         1.192385        -1.255125        -0.788971
 H         1.713438         0.276123        -1.339072
 H        -2.774272        -1.175710         0.197613
 H        -4.108495        -0.527104         1.509740
 H        -3.339709         1.692582        -0.369750
 H        -4.495991        -0.842608        -1.745898
 H        -5.508160         0.709725        -1.306580
 H        -2.025621         0.003079        -2.630022
 H        -1.957466         1.722622        -2.342323
