19
Iteration:  1120
 C         0.733234        -0.889217        -1.092360
 C        -0.437371        -0.355897        -0.370722
 C        -1.313824         0.054871         0.329753
 C        -2.739832         0.034943         0.644808
 O        -3.327740         1.172155         1.449374
 C        -3.501325         0.189238        -0.668339
 C        -3.001333        -0.243680        -2.091633
 O        -3.298575         1.113381        -2.685920
 C        -3.553497         1.624702        -1.378202
 H         1.505534        -0.130918        -1.160810
 H         1.033495        -1.912116        -0.552677
 H         0.335951        -1.152844        -2.113285
 H        -2.897044        -0.921324         1.116877
 H        -3.697882         0.939184         2.290432
 H        -4.433495        -0.292702        -0.387188
 H        -1.902376        -0.524607        -2.215331
 H        -3.644307        -0.875365        -2.689860
 H        -2.726242         2.348166        -1.187230
 H        -4.470583         2.183324        -1.307359
