19
Iteration:  3709charge 0 multiplicity 1
 C         1.468332        -0.064979         0.187650
 C         0.019936        -0.132803         0.041964
 C        -1.161684        -0.131690        -0.094692
 C        -2.612738        -0.238880        -0.102372
 O        -3.191234        -0.082941         1.246295
 C        -3.136512         0.947284        -0.905566
 C        -4.664545         0.941736        -1.234052
 O        -4.270325         0.841000        -2.662066
 C        -2.830098         0.842265        -2.456172
 H         2.021463         0.853802        -0.301838
 H         1.794185        -0.105314         1.253262
 H         1.975701        -0.814557        -0.372861
 H        -2.925827        -1.205004        -0.527901
 H        -3.055453        -0.854813         1.793036
 H        -2.948790         1.921810        -0.429103
 H        -5.152421        -0.096194        -0.929265
 H        -5.174237         1.826243        -0.823848
 H        -2.458741        -0.207686        -2.762261
 H        -2.399127         1.759720        -3.016885
