19
Iteration:  2432charge 0 multiplicity 1
 C         1.394929         0.208808         0.246832
 C         0.007170        -0.094313        -0.065148
 C        -1.207458        -0.129174        -0.140898
 C        -2.615887        -0.271582        -0.022167
 O        -2.984341        -0.138820         1.414824
 C        -3.223433         0.748077        -0.932854
 C        -4.678652         0.998652        -1.342503
 O        -4.205217         1.170352        -2.753773
 C        -2.994432         0.370174        -2.404911
 H         2.071818         0.412145        -0.687539
 H         1.647550         1.085819         0.748473
 H         1.815724        -0.690865         0.726631
 H        -2.957106        -1.209699        -0.312589
 H        -2.293136        -0.528466         1.938130
 H        -2.681009         1.722809        -0.875228
 H        -5.381119         0.114063        -1.303787
 H        -5.157615         1.887423        -0.843438
 H        -2.822851        -0.812377        -2.563941
 H        -2.111213         0.715799        -2.991123
