19
Iteration:  1053charge 0 multiplicity 1
 C         1.068011        -0.599657        -0.683470
 C        -0.331840        -0.373416        -0.337592
 C        -1.486129        -0.197747         0.102874
 C        -2.872953         0.002058         0.414036
 O        -2.767117         1.036011         1.534910
 C        -3.778382         0.316995        -0.700015
 C        -3.623468        -0.298587        -2.139906
 O        -3.171539         1.053130        -2.663621
 C        -3.592404         1.670536        -1.456828
 H         1.639602         0.195508        -0.292041
 H         1.537329        -1.667089        -0.398400
 H         1.000247        -0.696280        -1.788088
 H        -3.297220        -0.911246         0.831762
 H        -3.697730         1.420140         1.462840
 H        -4.784241         0.193397        -0.332823
 H        -2.791812        -1.052963        -2.313763
 H        -4.601772        -0.588535        -2.482749
 H        -2.805854         2.286093        -0.975686
 H        -4.439752         2.345388        -1.553331
