19
Iteration:  4661charge 0 multiplicity 1
 C         1.450610         0.163796        -0.065819
 C         0.024134        -0.022389        -0.022267
 C        -1.160607        -0.362619        -0.046597
 C        -2.641916        -0.482544        -0.038754
 O        -3.126503        -0.497845         1.332783
 C        -3.351670         0.847438        -0.696960
 C        -4.698759         0.786021        -1.541134
 O        -4.107971         1.363668        -2.658509
 C        -2.762849         1.102315        -2.174998
 H         1.913651        -0.535232         0.574545
 H         1.846876         0.192278        -1.042710
 H         1.662317         1.224479         0.378530
 H        -2.967793        -1.428487        -0.668933
 H        -3.413629        -1.418163         1.531733
 H        -3.107803         1.629288        -0.079229
 H        -5.052487        -0.354668        -1.701815
 H        -5.596834         1.353928        -1.226840
 H        -2.373349         0.213760        -2.727743
 H        -2.172608         2.050213        -2.306990
