19
Iteration:  1299charge 0 multiplicity 1
 C         1.140391        -0.399349        -0.223602
 C        -0.278269        -0.329985        -0.171121
 C        -1.447848        -0.301509        -0.187477
 C        -2.821211        -0.084761         0.229969
 O        -2.616003         0.784485         1.412890
 C        -3.768622         0.496046        -0.697907
 C        -4.188830        -0.100684        -2.050706
 O        -3.422133         0.931230        -2.786848
 C        -3.286247         1.693080        -1.564982
 H         1.726060         0.606008        -0.531355
 H         1.463295        -0.499213         0.784250
 H         1.500037        -1.304943        -0.824021
 H        -3.250446        -1.016203         0.641021
 H        -1.832498         0.377957         1.875237
 H        -4.575997         0.953949         0.001179
 H        -3.685010        -1.132265        -2.231423
 H        -5.306769        -0.304320        -2.265748
 H        -2.230539         1.971136        -1.544540
 H        -4.071418         2.405918        -1.463532
