19
Iteration:    65charge 0 multiplicity 1
 C         1.528320        -0.479735         0.436643
 C         0.187954         0.042750         0.112043
 C        -1.010703         0.243156        -0.196018
 C        -2.534023        -0.017779         0.004649
 O        -2.805940         0.372539         1.389106
 C        -3.428669         0.816173        -0.932641
 C        -4.740072         0.319192        -1.502168
 O        -4.483510         0.756348        -2.830062
 C        -3.111086         0.865590        -2.463068
 H         1.863386        -0.262659         1.382774
 H         1.428864        -1.643707         0.143762
 H         2.289409        -0.191257        -0.301060
 H        -2.739796        -1.077951        -0.085815
 H        -2.311237         1.233030         1.527478
 H        -3.490148         1.854226        -0.552758
 H        -4.897017        -0.729886        -1.393510
 H        -5.722690         0.737033        -1.115905
 H        -2.558964        -0.034152        -2.734427
 H        -2.641388         1.758694        -2.858666
