19
Iteration:  2850
 C         1.432475         0.305430         0.533500
 C         0.091754        -0.205954         0.293736
 C        -1.028959        -0.478569        -0.128182
 C        -2.481971        -0.377249        -0.307902
 O        -3.067978        -0.147445         0.928158
 C        -2.933409         0.770903        -1.146393
 C        -4.414254         1.051428        -1.022705
 O        -4.589850         1.295348        -2.473158
 C        -3.299395         0.543057        -2.620389
 H         1.570902         1.252331         1.101265
 H         2.109487        -0.451377         0.799390
 H         1.712864         0.713997        -0.424417
 H        -2.960663        -1.294274        -0.843374
 H        -2.865401        -0.962842         1.467309
 H        -2.219386         1.638629        -0.954004
 H        -4.882475         0.169693        -0.539035
 H        -4.787702         1.846073        -0.299381
 H        -3.494361        -0.538856        -2.870975
 H        -2.769858         1.116620        -3.468137
