19
Iteration:  4614charge 0 multiplicity 1
 C         1.366311         0.138748        -0.279408
 C        -0.065925        -0.171789        -0.110172
 C        -1.280733        -0.147578         0.100021
 C        -2.676830        -0.388236        -0.007092
 O        -3.369394        -0.540621         1.212516
 C        -3.187113         0.882528        -0.715857
 C        -4.603063         0.638831        -1.397211
 O        -3.933523         1.115910        -2.694720
 C        -2.672519         1.394447        -2.015464
 H         1.955152        -0.783169        -0.100731
 H         1.570818         0.593834        -1.274371
 H         1.739546         0.909190         0.456072
 H        -2.842931        -1.354240        -0.737196
 H        -2.699035        -0.772360         1.856481
 H        -3.426314         1.523121         0.241524
 H        -4.824712        -0.535712        -1.533202
 H        -5.518602         1.131976        -1.133550
 H        -1.928398         0.684870        -2.388341
 H        -2.453187         2.388858        -2.094920
