19
Iteration:   151charge 0 multiplicity 1
 C         1.560400        -0.399827         0.255360
 C         0.112819        -0.395221         0.061019
 C        -1.074964        -0.012946        -0.071451
 C        -2.594875         0.093948         0.179860
 O        -2.943645         0.631957         1.398935
 C        -3.392611         0.830064        -0.970033
 C        -4.540200         0.046132        -1.548585
 O        -4.438350         0.698744        -2.846944
 C        -3.106044         1.254123        -2.453356
 H         1.736790         0.598822         0.545890
 H         1.943575        -1.016905         1.191627
 H         2.174156        -0.588324        -0.640214
 H        -2.986010        -0.965840         0.185427
 H        -2.167804         1.016543         1.808794
 H        -3.620575         1.849209        -0.541338
 H        -4.284521        -1.065459        -1.577293
 H        -5.606188         0.017957        -1.036287
 H        -2.362752         0.694458        -3.145990
 H        -3.004796         2.345030        -2.587847
