19
Iteration:  4743charge 0 multiplicity 1
 C         1.517718         0.200537         0.309887
 C         0.127345        -0.108581         0.074320
 C        -1.040055        -0.423396        -0.088070
 C        -2.557695        -0.413530        -0.217159
 O        -3.197984        -0.451028         1.047580
 C        -3.102024         0.772831        -0.891922
 C        -4.711048         0.867406        -1.203949
 O        -4.385549         1.380903        -2.529247
 C        -3.026447         1.024187        -2.443625
 H         1.894379         0.054827         1.376149
 H         2.148131        -0.604995        -0.198402
 H         1.861959         1.148088         0.064229
 H        -2.864628        -1.399946        -0.725237
 H        -2.799806        -1.179720         1.565906
 H        -2.708010         1.758188        -0.490948
 H        -5.156246        -0.121799        -1.180252
 H        -5.221631         1.663164        -0.652619
 H        -2.882823         0.208768        -3.197825
 H        -2.149199         1.725413        -2.856707
