19
Iteration:  3325charge 0 multiplicity 1
 C         1.329259        -0.054337        -0.467142
 C        -0.044851        -0.150475         0.017613
 C        -1.274268        -0.055939         0.118266
 C        -2.723102        -0.167458         0.194597
 O        -3.403094        -0.073650         1.437869
 C        -3.201242         0.798838        -0.780193
 C        -4.534247         0.617658        -1.472743
 O        -3.931773         1.080175        -2.717318
 C        -2.623207         0.807817        -2.176136
 H         1.943742        -1.026096        -0.248740
 H         1.305181         0.422346        -1.460158
 H         1.903582         0.696470        -0.014930
 H        -3.018968        -1.216818        -0.049016
 H        -3.511513         0.901278         1.668852
 H        -2.983510         1.708935        -0.322961
 H        -4.829538        -0.433222        -1.648582
 H        -5.406910         1.238896        -1.225537
 H        -2.196265        -0.194765        -2.615523
 H        -1.700848         1.408142        -2.335189
