19
Iteration:   575
 C         1.599013        -0.373964         0.793511
 C         0.340333         0.100837         0.307455
 C        -0.801554         0.395362        -0.091162
 C        -2.337851         0.133734        -0.247735
 O        -3.064900         0.158699         0.982077
 C        -3.106330         0.887026        -1.388158
 C        -4.602832         0.868512        -1.063258
 O        -4.864476         0.553626        -2.533310
 C        -3.416003         0.351168        -2.784036
 H         1.690981        -1.547190         0.893766
 H         2.392450        -0.036257         0.225997
 H         1.691548         0.076883         1.788815
 H        -2.288451        -0.876685        -0.617629
 H        -2.431468        -0.127062         1.663683
 H        -2.728809         1.998655        -1.312385
 H        -4.919610         0.047717        -0.395314
 H        -5.076316         1.795111        -0.729956
 H        -3.285948        -0.740135        -2.846851
 H        -2.997111         0.832758        -3.708293
