19
Iteration:  2904charge 0 multiplicity 1
 C         1.322579         0.345060         0.717496
 C         0.140949        -0.185322         0.045632
 C        -0.962814        -0.669974        -0.193490
 C        -2.433675        -0.561888        -0.311610
 O        -2.949987        -0.165708         1.015455
 C        -2.990632         0.763056        -1.202676
 C        -4.470917         1.293585        -1.013039
 O        -4.642858         1.174553        -2.441973
 C        -3.337607         0.651604        -2.706094
 H         0.977547         1.401639         1.090701
 H         1.484993        -0.216273         1.611330
 H         2.202221         0.565960         0.187826
 H        -2.913783        -1.500051        -0.633694
 H        -2.249061        -0.242012         1.695272
 H        -2.295963         1.648244        -0.993474
 H        -5.007418         0.659965        -0.330118
 H        -4.372936         2.388666        -0.856214
 H        -3.416838        -0.406681        -3.040769
 H        -2.854832         1.075249        -3.479869
