19
Iteration:   382
 C         1.332220         0.080368        -0.411247
 C        -0.104192         0.105446        -0.199734
 C        -1.252280        -0.090926         0.182619
 C        -2.738838        -0.223332         0.215075
 O        -3.407554         0.325995         1.527129
 C        -3.043997         0.883253        -0.817147
 C        -4.461288         1.024625        -1.474822
 O        -4.029446         0.488112        -2.770411
 C        -2.668261         0.335023        -2.185378
 H         1.462514        -0.182662        -1.466180
 H         1.780712         1.174960        -0.393345
 H         1.833475        -0.787382         0.048604
 H        -3.039566        -1.242340        -0.007896
 H        -3.437512        -0.436434         2.180251
 H        -2.751906         1.762319        -0.339799
 H        -5.206952         0.350827        -1.042104
 H        -4.799237         2.114112        -1.490352
 H        -2.384645        -0.744270        -1.950690
 H        -1.939657         0.756808        -2.876084
