19
Iteration:   448charge 0 multiplicity 1
 C         1.457803         0.156930         0.108001
 C         0.000555        -0.309618         0.196760
 C        -1.214539        -0.353499         0.001668
 C        -2.611211        -0.067703        -0.032294
 O        -3.058654         0.480642         1.376847
 C        -3.089431         0.882075        -1.078875
 C        -4.611217         0.807846        -1.303532
 O        -4.389668         0.588016        -2.730572
 C        -2.900651         0.497489        -2.470228
 H         1.882612        -0.356807        -0.736200
 H         1.345232         1.315898        -0.191222
 H         2.130575        -0.065380         0.966544
 H        -3.251788        -0.955113        -0.121626
 H        -2.225020         0.598968         1.813184
 H        -2.610389         1.793160        -0.940151
 H        -4.966177        -0.103295        -0.798438
 H        -5.331658         1.654597        -1.082889
 H        -2.574378        -0.494832        -2.881483
 H        -2.320101         1.307397        -2.948425
