19
Iteration:  2946charge 0 multiplicity 1
 C         1.346880         0.125660         0.692582
 C         0.036838        -0.072024         0.183383
 C        -1.011675        -0.223439        -0.398723
 C        -2.500966        -0.310676        -0.353341
 O        -2.995088        -0.421452         1.135848
 C        -2.921954         0.873272        -1.116187
 C        -4.397782         1.313631        -1.022129
 O        -4.612497         1.049120        -2.447284
 C        -3.306327         0.484205        -2.731175
 H         1.693811         1.274949         0.595208
 H         1.558910        -0.352279         1.656474
 H         2.018422        -0.186796        -0.062272
 H        -2.808005        -1.201903        -0.776901
 H        -2.407168         0.266153         1.579227
 H        -2.115654         1.689075        -0.878369
 H        -5.040867         0.554372        -0.490407
 H        -4.777158         2.343947        -0.760841
 H        -3.221072        -0.634481        -2.884571
 H        -2.840796         1.064667        -3.578444
