19
Iteration:  2269charge 0 multiplicity 1
 C         1.531280        -0.326847         0.615572
 C         0.176822         0.058934         0.191449
 C        -0.984121         0.386513        -0.023187
 C        -2.415686        -0.077458        -0.234852
 O        -2.980241        -0.239074         1.096291
 C        -3.123350         0.913180        -1.137544
 C        -4.623759         1.225794        -1.257909
 O        -4.737813         0.727248        -2.611356
 C        -3.249846         0.397067        -2.578061
 H         2.183029         0.631170         0.819408
 H         1.483986        -1.016694         1.488655
 H         1.983176        -0.963673        -0.218377
 H        -2.433559        -0.928482        -0.887525
 H        -2.311310        -0.411644         1.825748
 H        -2.390914         1.752161        -1.083001
 H        -5.255407         0.682064        -0.476162
 H        -4.642207         2.332270        -1.412511
 H        -2.998062        -0.615068        -2.930672
 H        -2.595153         0.963629        -3.319945
