19
Iteration:  3449
 C         1.457863        -0.016191         0.499240
 C         0.110934        -0.153714         0.012393
 C        -1.081966        -0.260740        -0.170830
 C        -2.502408        -0.223806        -0.146619
 O        -3.050111        -0.046933         1.245874
 C        -3.061222         0.926361        -1.055448
 C        -4.565335         1.071123        -1.192498
 O        -4.542658         0.890366        -2.654281
 C        -3.061693         0.674298        -2.598537
 H         1.470166        -0.252042         1.536409
 H         2.155926        -0.714498        -0.018372
 H         1.700409         1.105963         0.545858
 H        -2.787370        -1.083253        -0.600471
 H        -3.017806        -0.989592         1.576642
 H        -2.600787         1.880495        -0.771212
 H        -5.077554         0.380425        -0.559347
 H        -5.034871         2.046083        -0.857029
 H        -2.972595        -0.396619        -2.879268
 H        -2.619903         1.480860        -3.146520
