19
Iteration:   993charge 0 multiplicity 1
 C         1.089411        -0.276893        -0.276073
 C        -0.311500        -0.432432        -0.241752
 C        -1.528480        -0.291880        -0.348542
 C        -2.794968        -0.098765         0.231629
 O        -2.559653         0.836091         1.403303
 C        -3.850837         0.586293        -0.636315
 C        -4.109244        -0.186956        -1.935184
 O        -3.282038         0.778997        -2.739058
 C        -3.284444         1.729985        -1.494371
 H         1.612268         0.601422         0.340030
 H         1.505645        -1.218544         0.033541
 H         1.414254        -0.051106        -1.326418
 H        -3.167219        -0.993301         0.685181
 H        -3.299665         0.576049         2.020015
 H        -4.747796         0.850275        -0.002081
 H        -3.633490        -1.191852        -2.099512
 H        -5.168044        -0.312790        -2.395921
 H        -2.254411         2.099323        -1.290027
 H        -3.981676         2.622399        -1.715691
