19
Iteration:  2775
 C         1.538919        -0.136943         0.203225
 C         0.100447         0.084544         0.182088
 C        -1.115152         0.097363         0.080089
 C        -2.499540        -0.163343        -0.106780
 O        -3.179106        -0.526598         1.084539
 C        -3.134138         0.922331        -0.963020
 C        -4.582436         0.996035        -1.242730
 O        -4.422179         1.134138        -2.652716
 C        -3.081168         0.592691        -2.471471
 H         1.927277        -0.054330         1.229360
 H         1.831049        -1.085600        -0.263710
 H         2.100194         0.789445        -0.297509
 H        -2.617803        -0.960857        -0.805239
 H        -2.611234        -0.312780         1.813206
 H        -2.702357         1.902068        -0.867738
 H        -5.093467         0.007764        -1.008324
 H        -5.167077         1.675864        -0.613706
 H        -3.227676        -0.425308        -2.721603
 H        -2.263020         1.193304        -3.078356
