19
Iteration:  1173charge 0 multiplicity 1
 C         0.677144        -0.885084        -1.128368
 C        -0.286297        -0.325571        -0.130696
 C        -1.425885         0.024518         0.324164
 C        -2.837318         0.017640         0.573892
 O        -3.189978         0.999936         1.485938
 C        -3.637562         0.309300        -0.738612
 C        -3.002258        -0.167107        -1.971402
 O        -3.277023         1.040502        -2.798355
 C        -3.583712         1.661806        -1.414877
 H         1.246507        -0.063152        -1.250739
 H         1.375780        -1.747733        -0.765696
 H         0.035737        -1.258088        -1.915358
 H        -3.068753        -0.993636         0.962825
 H        -2.520567         1.645117         1.670044
 H        -4.600187        -0.103606        -0.552496
 H        -1.808147        -0.090945        -1.821662
 H        -3.381703        -1.149957        -2.340282
 H        -2.805581         2.438046        -1.243786
 H        -4.539255         2.247262        -1.422682
