19
Iteration:  3488charge 0 multiplicity 1
 C         1.621120        -0.159874         0.649205
 C         0.213968        -0.075270         0.198761
 C        -0.988149        -0.151754        -0.061634
 C        -2.412471        -0.187489        -0.342977
 O        -3.188745        -0.062013         0.919058
 C        -3.003879         0.935939        -1.171605
 C        -4.560990         1.109831        -1.069178
 O        -4.724236         0.788631        -2.483999
 C        -3.264889         0.694126        -2.651658
 H         1.622171        -0.165447         1.828896
 H         2.226670        -0.974158         0.267950
 H         2.275315         0.584910         0.328644
 H        -2.699740        -1.290817        -0.677872
 H        -2.598948        -0.311101         1.623588
 H        -2.463679         1.847660        -0.841033
 H        -5.171594         0.462561        -0.330243
 H        -4.931145         2.153506        -0.956355
 H        -2.807172        -0.228475        -3.028337
 H        -2.829960         1.467746        -3.325341
