19
Iteration:  1192charge 0 multiplicity 1
 C         0.795131        -0.774869        -1.010362
 C        -0.247952        -0.416204        -0.114981
 C        -1.420208        -0.142671         0.199636
 C        -2.853477         0.047205         0.528148
 O        -3.153440         1.032706         1.615305
 C        -3.643658         0.366771        -0.772341
 C        -3.077658        -0.240275        -2.094700
 O        -3.325578         1.036853        -2.688325
 C        -3.594268         1.704401        -1.489442
 H         1.457968         0.017714        -1.470730
 H         1.317806        -1.527287        -0.502474
 H         0.312294        -1.300268        -1.884536
 H        -3.193392        -0.898955         1.052337
 H        -2.718515         1.887567         1.413032
 H        -4.654990         0.089311        -0.470680
 H        -2.016574        -0.523001        -2.049563
 H        -3.690526        -1.004638        -2.572706
 H        -2.837394         2.431246        -1.165772
 H        -4.493164         2.375441        -1.633565
