19
Iteration:  2537
 C         1.401256        -0.024766        -0.465653
 C         0.109186        -0.234673         0.121486
 C        -1.090631        -0.194741         0.445901
 C        -2.581010        -0.083585         0.131786
 O        -3.544609         0.014538         1.266719
 C        -3.190271         0.970328        -0.830559
 C        -4.543866         0.491480        -1.399855
 O        -4.070434         0.725842        -2.737695
 C        -2.799249         1.211871        -2.332251
 H         1.526140        -0.864996        -1.087000
 H         1.715265         1.033877        -0.804404
 H         2.198737        -0.093108         0.251848
 H        -2.852278        -0.965222        -0.360633
 H        -3.269240        -0.546656         1.973292
 H        -3.206217         1.979500        -0.409642
 H        -4.638897        -0.618051        -1.100427
 H        -5.417699         1.090786        -1.116561
 H        -2.086945         0.390185        -2.878810
 H        -2.509801         2.274266        -2.498526
