19
Iteration:  2730charge 0 multiplicity 1
 C         1.596740        -0.161442         0.041793
 C         0.141367        -0.078880         0.156542
 C        -1.087236         0.001679         0.121336
 C        -2.554354        -0.163979        -0.056962
 O        -3.237387        -0.323886         1.223410
 C        -3.170514         0.887549        -0.934701
 C        -4.683572         0.756850        -1.280023
 O        -4.395228         0.941298        -2.764219
 C        -2.926410         1.003973        -2.424822
 H         2.017353        -0.615579         0.995155
 H         1.747247        -0.865666        -0.756269
 H         2.194918         0.818372        -0.027402
 H        -2.649021        -1.132495        -0.504411
 H        -3.126054         0.444256         1.778425
 H        -2.977830         1.849988        -0.422992
 H        -5.245601        -0.143477        -0.985290
 H        -5.394379         1.570488        -0.975635
 H        -2.295823         0.262667        -2.837484
 H        -2.659191         2.135103        -2.618184
