19
Iteration:  1736charge 0 multiplicity 1
 C         1.372459        -0.583480         0.689555
 C         0.150691         0.168441         0.220368
 C        -0.916011         0.519017        -0.137176
 C        -2.267646         0.087187        -0.201966
 O        -2.866217         0.064483         1.139752
 C        -3.157881         0.901995        -1.248647
 C        -4.660824         0.849468        -1.147049
 O        -4.685040         0.696278        -2.625662
 C        -3.306789         0.362981        -2.724857
 H         1.695878        -1.315548         0.025850
 H         2.146205         0.236218         0.816337
 H         1.250891        -1.032078         1.684059
 H        -2.182605        -1.109881        -0.516489
 H        -2.278934         0.417481         1.788408
 H        -2.754050         1.955032        -1.254327
 H        -5.142233        -0.020885        -0.607816
 H        -5.109439         1.855918        -0.783548
 H        -3.153463        -0.696255        -2.786824
 H        -2.936349         1.044949        -3.530449
