19
Iteration:  1199
 C         0.874966        -0.755262        -1.013869
 C        -0.308785        -0.431491        -0.147804
 C        -1.411946        -0.183745         0.227565
 C        -2.833966         0.077394         0.544422
 O        -3.110271         1.043217         1.643101
 C        -3.668768         0.349689        -0.794416
 C        -3.172118        -0.243884        -2.133958
 O        -3.313536         1.046163        -2.712204
 C        -3.589636         1.712360        -1.468546
 H         1.578938         0.174418        -1.129279
 H         1.490696        -1.435516        -0.325594
 H         0.442294        -1.438490        -1.756201
 H        -3.240648        -0.846789         0.934788
 H        -2.899540         1.946282         1.443433
 H        -4.739535        -0.040959        -0.617819
 H        -2.151889        -0.533054        -2.180161
 H        -3.878057        -1.010710        -2.515259
 H        -2.702248         2.344049        -1.201249
 H        -4.480644         2.303229        -1.611444
