19
Iteration:  1195
 C         0.829963        -0.754110        -1.027757
 C        -0.284689        -0.422547        -0.117427
 C        -1.396941        -0.164307         0.201152
 C        -2.851250         0.052523         0.533261
 O        -3.138157         1.038078         1.628814
 C        -3.657790         0.366514        -0.792155
 C        -3.116642        -0.239326        -2.113838
 O        -3.323286         1.038460        -2.686634
 C        -3.593915         1.701243        -1.481612
 H         1.458024         0.010844        -1.300955
 H         1.366904        -1.529942        -0.376809
 H         0.345424        -1.360262        -1.781580
 H        -3.196293        -0.872796         1.019333
 H        -2.786310         1.956882         1.445072
 H        -4.627217         0.046355        -0.516035
 H        -1.961166        -0.538856        -2.096757
 H        -3.792690        -1.011561        -2.543489
 H        -2.792798         2.423495        -1.186955
 H        -4.461708         2.364247        -1.659468
