19
Iteration:  3671
 C         1.482508         0.024417         0.431688
 C         0.172071        -0.291982         0.056549
 C        -1.070655        -0.437055        -0.064249
 C        -2.549797        -0.229375        -0.208111
 O        -3.169691        -0.029849         1.120929
 C        -3.093702         1.026828        -1.030364
 C        -4.610111         1.046754        -1.146235
 O        -4.477245         0.693791        -2.556134
 C        -3.037274         0.994783        -2.598891
 H         1.746015         1.071997         0.425727
 H         1.617708        -0.224318         1.497754
 H         2.256499        -0.498879        -0.345052
 H        -3.043311        -1.226243        -0.678690
 H        -2.552274        -0.490221         1.717371
 H        -2.589713         1.886850        -0.476987
 H        -5.150072         0.234637        -0.696960
 H        -5.104431         2.057713        -1.118388
 H        -2.349281         0.284951        -3.013147
 H        -2.718345         1.815798        -3.164014
