19
Iteration:  3956charge 0 multiplicity 1
 C         1.376790        -0.192423        -0.261334
 C        -0.009598        -0.174957        -0.111484
 C        -1.203826        -0.266542        -0.018413
 C        -2.710839        -0.168489         0.156529
 O        -3.213066        -0.019077         1.500520
 C        -3.392610         0.991452        -0.700757
 C        -4.637427         0.480384        -1.633842
 O        -3.865473         0.823250        -2.883874
 C        -2.798025         1.388782        -2.004896
 H         1.850149        -1.153983        -0.686498
 H         1.749414         0.571037        -1.015800
 H         1.928497        -0.017390         0.625082
 H        -3.125682        -1.220843        -0.119192
 H        -2.623874        -0.220435         2.246670
 H        -3.844259         1.833651        -0.072998
 H        -4.862125        -0.522896        -1.451434
 H        -5.661761         0.906791        -1.609474
 H        -1.779009         0.869226        -2.267740
 H        -2.574130         2.548773        -2.150283
