19
Iteration:  1436
 C         1.335799        -0.305514        -0.387239
 C        -0.094283        -0.045726        -0.025673
 C        -1.236874         0.172594         0.163113
 C        -2.653693        -0.104269         0.229197
 O        -3.318140         0.045951         1.504439
 C        -3.344903         0.727164        -0.800668
 C        -4.473377         0.263810        -1.625450
 O        -3.968844         0.982720        -2.781539
 C        -2.675382         1.128845        -2.196968
 H         1.586804         0.254568        -1.297896
 H         1.955979         0.263571         0.488747
 H         1.533258        -1.386167        -0.316130
 H        -2.734234        -1.105058        -0.075917
 H        -2.782641         0.390711         2.202332
 H        -3.523096         1.680911        -0.292620
 H        -4.611426        -0.837631        -1.826428
 H        -5.426855         0.763356        -1.285593
 H        -1.950787         0.427360        -2.586670
 H        -2.455411         2.215845        -2.370031
