19
Iteration:  1072charge 0 multiplicity 1
 C         0.959118        -0.739637        -0.869861
 C        -0.270796        -0.342532        -0.208323
 C        -1.478490        -0.114782         0.001086
 C        -2.807078         0.017851         0.585477
 O        -2.955318         1.092124         1.472175
 C        -3.748932         0.273309        -0.709055
 C        -3.421289        -0.253039        -2.114726
 O        -3.207682         1.042407        -2.665358
 C        -3.567416         1.659636        -1.361553
 H         1.660901         0.087734        -0.632637
 H         1.212044        -1.747782        -0.419378
 H         0.797335        -0.754557        -1.987531
 H        -3.025173        -0.916317         1.105326
 H        -3.935692         1.215620         1.667005
 H        -4.817014         0.118346        -0.498887
 H        -2.385490        -0.779444        -2.286385
 H        -4.237623        -0.729869        -2.762974
 H        -2.763613         2.293868        -0.929860
 H        -4.549490         2.247196        -1.550525
