19
Iteration:  2009charge 0 multiplicity 1
 C         1.197104        -0.103345        -0.593303
 C        -0.098632        -0.105509        -0.020503
 C        -1.140134        -0.049522         0.646889
 C        -2.628598        -0.059048         0.318259
 O        -3.510543         0.399432         1.293225
 C        -2.940029         0.873181        -0.928854
 C        -4.465592         0.713726        -1.322876
 O        -4.060046         0.600024        -2.710870
 C        -2.684036         0.506020        -2.369302
 H         1.909781        -0.749097        -0.184373
 H         1.031008        -0.512017        -1.712006
 H         1.701652         0.909934        -0.744194
 H        -2.734337        -1.107988         0.093260
 H        -3.617786         1.327499         1.162378
 H        -2.643525         1.902738        -0.652051
 H        -4.799621        -0.265353        -1.074158
 H        -5.084725         1.596286        -1.153783
 H        -2.176695        -0.445970        -2.457476
 H        -2.053824         1.206813        -2.863491
