19
Iteration:  3947charge 0 multiplicity 1
 C         1.396724        -0.171382        -0.293608
 C        -0.093185        -0.151690        -0.151010
 C        -1.293069        -0.256864        -0.018960
 C        -2.702614        -0.193155         0.181087
 O        -3.216390         0.017891         1.532251
 C        -3.389808         0.913512        -0.744584
 C        -4.580342         0.472681        -1.637835
 O        -3.849922         0.832588        -2.816725
 C        -2.737315         1.382535        -2.033723
 H         1.694013        -1.128748        -0.637313
 H         1.610038         0.693622        -0.893457
 H         1.790117        -0.140344         0.656464
 H        -3.171353        -1.129634        -0.308219
 H        -2.455911        -0.236188         2.083870
 H        -3.720569         1.631021         0.121378
 H        -4.746810        -0.619769        -1.753484
 H        -5.443846         1.095904        -1.391128
 H        -1.726875         0.929090        -2.291910
 H        -2.678819         2.509533        -2.174618
