19
Iteration:  2463charge 0 multiplicity 1
 C         1.521657         0.088913         0.029485
 C         0.047017         0.089138        -0.199325
 C        -1.146041        -0.127169         0.028844
 C        -2.577440        -0.289540         0.117047
 O        -3.236619        -0.164862         1.427568
 C        -3.240521         0.820353        -0.797947
 C        -4.692044         0.885808        -1.449926
 O        -4.163939         1.096672        -2.835556
 C        -2.925948         0.536310        -2.299840
 H         2.062655        -0.244443        -0.946262
 H         1.981990         0.989790         0.531877
 H         1.803479        -0.615280         0.782620
 H        -2.963667        -1.277869        -0.199623
 H        -2.660188        -0.610000         2.106828
 H        -2.832116         1.821704        -0.491228
 H        -5.273093         0.000257        -1.501650
 H        -5.380962         1.663307        -1.167701
 H        -2.773373        -0.538389        -2.368139
 H        -2.112190         1.027001        -2.887562
