19
Iteration:  1290charge 0 multiplicity 1
 C         1.160624        -0.419001        -0.254394
 C        -0.291615        -0.323613        -0.173928
 C        -1.500259        -0.281704        -0.186465
 C        -2.848702        -0.087031         0.270772
 O        -2.631954         0.830017         1.371361
 C        -3.817573         0.555575        -0.712967
 C        -4.088511        -0.206888        -2.069268
 O        -3.416615         0.958192        -2.741102
 C        -3.283288         1.640783        -1.500349
 H         1.684781         0.565557        -0.677086
 H         1.540824        -0.709186         0.712208
 H         1.342746        -1.330103        -0.918877
 H        -3.117782        -1.134632         0.561271
 H        -1.713413         0.617054         1.679872
 H        -4.719085         0.715603        -0.095856
 H        -3.571950        -1.063534        -2.384981
 H        -5.136855        -0.159428        -2.315457
 H        -2.270511         1.973248        -1.234103
 H        -3.913739         2.561370        -1.420301
