19
Iteration:   904
 C         1.328274        -0.200467        -0.359966
 C        -0.105418        -0.315564        -0.106956
 C        -1.341903        -0.212226         0.036343
 C        -2.726305        -0.012623         0.256560
 O        -2.886274         0.383069         1.639714
 C        -3.646810         0.870355        -0.721676
 C        -4.377288         0.031981        -1.831904
 O        -3.791448         0.750356        -2.874058
 C        -2.896911         1.473053        -2.042092
 H         1.557333         0.425550         0.603177
 H         1.834380        -1.077795        -0.298148
 H         1.571882         0.475092        -1.173816
 H        -3.100046        -1.011692         0.185791
 H        -3.867324         0.311709         1.835236
 H        -4.204473         1.561790        -0.027926
 H        -4.008583        -1.022670        -1.885708
 H        -5.489745        -0.048638        -1.697432
 H        -1.815926         1.234114        -2.107995
 H        -3.125510         2.568936        -1.970597
