19
Iteration:  1055
 C         1.043058        -0.607339        -0.705342
 C        -0.321274        -0.374110        -0.322815
 C        -1.497120        -0.187717         0.090745
 C        -2.867849         0.005497         0.418763
 O        -2.785519         1.049071         1.539326
 C        -3.766772         0.308183        -0.698926
 C        -3.593070        -0.300541        -2.154577
 O        -3.171419         1.054200        -2.674680
 C        -3.589714         1.669873        -1.432453
 H         1.728413         0.146441        -0.299172
 H         1.498122        -1.607008        -0.432706
 H         0.995061        -0.767968        -1.776533
 H        -3.290711        -0.948439         0.855182
 H        -3.703799         1.414338         1.480875
 H        -4.786995         0.169947        -0.310995
 H        -2.843499        -1.050656        -2.268925
 H        -4.560241        -0.612912        -2.464342
 H        -2.828585         2.334259        -0.990285
 H        -4.449818         2.297600        -1.485803
