19
Iteration:   996charge 0 multiplicity 1
 C         1.096474        -0.278607        -0.299516
 C        -0.293855        -0.442781        -0.238830
 C        -1.538119        -0.315716        -0.352098
 C        -2.790113        -0.057220         0.247113
 O        -2.582240         0.841836         1.395265
 C        -3.832364         0.562751        -0.625372
 C        -4.073226        -0.187544        -1.947067
 O        -3.281901         0.778098        -2.715541
 C        -3.303363         1.757336        -1.487505
 H         1.484649         0.566775         0.270770
 H         1.415449        -1.320389         0.093475
 H         1.400829        -0.009961        -1.343593
 H        -3.203420        -0.981290         0.685830
 H        -3.337382         0.564131         1.892167
 H        -4.743581         0.814010        -0.083202
 H        -3.629616        -1.247417        -2.093407
 H        -5.095061        -0.259009        -2.337203
 H        -2.285683         2.120443        -1.350829
 H        -4.031238         2.552020        -1.698821
