19
Iteration:   324
 C         1.186591        -0.017695        -0.809740
 C        -0.078819        -0.088473         0.103489
 C        -1.222423         0.046603         0.535468
 C        -2.701932        -0.027772         0.369533
 O        -3.515576         0.315546         1.460225
 C        -3.066008         0.900528        -0.805281
 C        -4.471237         0.787844        -1.498460
 O        -3.876248         0.464724        -2.825769
 C        -2.606025         0.511641        -2.257053
 H         0.537345         0.326599        -1.728787
 H         1.993227         0.682070        -0.560627
 H         1.741350        -0.958086        -0.956734
 H        -2.937209        -1.052903         0.064906
 H        -3.233453        -0.230054         2.197238
 H        -2.778799         1.955245        -0.455832
 H        -5.065083        -0.108592        -1.268844
 H        -5.228460         1.595677        -1.472693
 H        -1.956056        -0.339203        -2.528449
 H        -1.996077         1.453533        -2.602580
