19
Iteration:   203charge 0 multiplicity 1
 C         1.414497        -0.303723        -0.067579
 C        -0.039191        -0.046619         0.037527
 C        -1.237165        -0.094528        -0.097313
 C        -2.659434        -0.029573         0.181894
 O        -2.878269         0.671504         1.553006
 C        -3.519138         0.802769        -0.778889
 C        -4.674120         0.197326        -1.686177
 O        -4.075276         0.606142        -2.952480
 C        -2.870404         1.038077        -2.168575
 H         2.045348         0.645542        -0.337172
 H         1.817517        -0.732880         0.821273
 H         1.610903        -1.130233        -0.791007
 H        -3.032915        -1.072773         0.168033
 H        -2.225995         0.324871         2.153615
 H        -3.678559         1.791142        -0.266897
 H        -4.639442        -0.897049        -1.662202
 H        -5.645246         0.695704        -1.442601
 H        -2.128553         0.282641        -2.354380
 H        -2.554471         2.063588        -2.475874
