19
Iteration:   755charge 0 multiplicity 1
 C         1.389495         0.221862        -0.285775
 C         0.048328        -0.063255         0.119859
 C        -1.200046        -0.281066         0.161008
 C        -2.682334        -0.205784         0.177265
 O        -3.344879         0.033841         1.399020
 C        -3.109584         0.891190        -0.873144
 C        -4.562191         1.046560        -1.475142
 O        -4.180092         0.666366        -2.800720
 C        -2.736315         0.524902        -2.277486
 H         2.055111         0.085488         0.465153
 H         1.529992        -0.480130        -1.189023
 H         1.489190         1.259842        -0.610405
 H        -3.017010        -1.140816        -0.226680
 H        -2.905801        -0.261998         2.243125
 H        -2.656698         1.854294        -0.673789
 H        -5.185662         0.245178        -1.061343
 H        -5.052812         2.015781        -1.388112
 H        -2.327298        -0.480783        -2.490473
 H        -2.016214         1.239332        -2.718162
