19
Iteration:  1932charge 0 multiplicity 1
 C         1.287265        -0.057972        -0.568096
 C        -0.148472        -0.015516        -0.070232
 C        -1.291720        -0.119805         0.326268
 C        -2.785239        -0.011507         0.282559
 O        -3.307296         0.265435         1.621890
 C        -3.157912         1.015222        -0.827736
 C        -4.522109         1.066080        -1.671395
 O        -3.956664         0.372596        -2.768643
 C        -2.610536         0.378532        -2.171240
 H         1.777873        -0.947538        -0.616115
 H         1.294495         0.156261        -1.701106
 H         1.813427         0.765413        -0.048883
 H        -3.101541        -1.144343        -0.077070
 H        -2.486226         0.190144         2.162378
 H        -2.671306         1.948938        -0.498632
 H        -5.284699         0.565321        -1.159432
 H        -5.015250         2.027573        -2.058885
 H        -2.229985        -0.618265        -2.080798
 H        -1.845760         0.942242        -2.681231
