19
Iteration:  3717
 C         1.513361        -0.089606         0.126211
 C         0.027330        -0.052269         0.045859
 C        -1.200504        -0.168382        -0.041971
 C        -2.618361        -0.187085        -0.041625
 O        -3.189281        -0.116899         1.267983
 C        -3.168822         0.969932        -0.854179
 C        -4.683679         0.884010        -1.292087
 O        -4.239366         0.884358        -2.717728
 C        -2.855885         0.819557        -2.399806
 H         2.051470         0.694412        -0.313941
 H         1.890581         0.005375         1.132487
 H         2.001884        -0.977560        -0.480934
 H        -2.973862        -1.190173        -0.611723
 H        -3.019607        -0.930968         1.730404
 H        -2.833562         2.014478        -0.519355
 H        -5.267175        -0.029039        -0.955046
 H        -5.200111         1.795817        -1.066862
 H        -2.425962        -0.088576        -2.842028
 H        -2.244123         1.477443        -2.910210
