19
Iteration:  2080
 C         1.404128        -0.124508        -0.065253
 C        -0.095140        -0.084255        -0.161917
 C        -1.249894        -0.060974         0.073435
 C        -2.701304         0.020855         0.202434
 O        -2.891641         0.394693         1.612148
 C        -3.335709         0.861904        -0.847528
 C        -4.793443         0.704533        -1.578512
 O        -4.082327         0.676653        -2.923050
 C        -2.823844         0.475179        -2.286666
 H         1.676490        -0.382063         1.065260
 H         1.758111        -0.910812        -0.673517
 H         2.075368         0.685202        -0.291782
 H        -3.275303        -1.071617         0.054950
 H        -2.066636         0.476328         2.072809
 H        -3.068674         1.911777        -0.685708
 H        -5.063223        -0.246335        -1.403124
 H        -5.488808         1.543617        -1.526404
 H        -2.528437        -0.594364        -2.422123
 H        -2.003958         1.104655        -2.771886
