19
Iteration:  4869charge 0 multiplicity 1
 C         1.499595        -0.186133         0.607159
 C         0.088994        -0.060842         0.196940
 C        -1.071276        -0.101439        -0.181169
 C        -2.476949        -0.131517        -0.466569
 O        -3.024976        -0.744567         0.795428
 C        -3.046700         1.184448        -0.993590
 C        -4.588043         1.126190        -0.986927
 O        -4.599882         0.772631        -2.399468
 C        -3.151535         1.165151        -2.565190
 H         1.946357         0.636144         1.139494
 H         1.646183        -1.053828         1.231542
 H         2.159084        -0.469144        -0.269792
 H        -2.734459        -0.858468        -1.207137
 H        -2.372725        -0.556105         1.471447
 H        -2.667067         2.193311        -0.596481
 H        -5.139662         0.381011        -0.217097
 H        -5.160714         1.966843        -0.833927
 H        -2.503118         0.371017        -3.041260
 H        -2.947376         2.129474        -2.878124
