19
Iteration:  4030
 C         1.477581        -0.371921         0.007083
 C         0.089459         0.019104        -0.047222
 C        -1.130360        -0.022661         0.006314
 C        -2.596313        -0.028799        -0.046930
 O        -3.219124        -0.256623         1.264093
 C        -3.342020         1.061962        -0.764968
 C        -4.713768         0.583878        -1.391190
 O        -4.096364         0.754763        -2.740739
 C        -2.850284         1.362254        -2.228388
 H         1.589330        -1.452381         0.301600
 H         2.038496        -0.531422        -0.939489
 H         2.181710         0.320012         0.560650
 H        -2.669548        -1.031598        -0.597628
 H        -2.939531        -1.084959         1.711662
 H        -3.463647         1.849641        -0.093840
 H        -5.162272        -0.462560        -1.155590
 H        -5.630935         1.163387        -1.134325
 H        -1.973007         0.822125        -2.450345
 H        -2.844173         2.357908        -2.521122
