19
Iteration:  4994
 C         1.525883        -0.207800         0.330853
 C         0.088440        -0.085906         0.194390
 C        -1.057743        -0.000317        -0.198682
 C        -2.547212        -0.262388        -0.259499
 O        -3.012760        -0.418886         1.082309
 C        -3.260524         0.897560        -0.835965
 C        -4.737365         0.752663        -1.275732
 O        -4.391557         1.077182        -2.644620
 C        -3.017940         1.247887        -2.346241
 H         2.106382         0.292455        -0.494850
 H         2.053653         0.134309         1.292590
 H         1.828314        -1.246421         0.222594
 H        -2.697927        -1.186030        -0.883016
 H        -2.715620        -1.208566         1.569324
 H        -3.065605         1.733403        -0.214440
 H        -5.312589        -0.369179        -0.942101
 H        -5.327995         1.583428        -0.850510
 H        -2.373831         0.572336        -2.994185
 H        -2.664314         2.225609        -2.550884
