19
Iteration:  3013
 C         1.719465        -0.206324         0.452075
 C         0.248834        -0.093445         0.261681
 C        -0.975243         0.046272         0.101670
 C        -2.392555        -0.146727        -0.200077
 O        -3.316136        -0.302873         1.000813
 C        -3.047307         0.939546        -1.072387
 C        -4.563393         1.008125        -1.097198
 O        -4.706124         0.806457        -2.606379
 C        -3.217103         0.852240        -2.756408
 H         2.149281         0.761669        -0.209550
 H         2.100979        -0.206749         1.462573
 H         2.131546        -1.005788        -0.117428
 H        -2.568233        -1.070799        -0.648053
 H        -2.861418        -0.130416         1.816061
 H        -2.639335         1.980959        -0.701349
 H        -5.108638         0.203478        -0.572484
 H        -4.904597         1.952416        -0.583585
 H        -2.979523        -0.070580        -3.375859
 H        -2.965264         1.881994        -3.185278
