19
Iteration:  2601charge 0 multiplicity 1
 C         1.399551        -0.223490        -0.276941
 C        -0.048083         0.100051        -0.134972
 C        -1.252749        -0.022967        -0.045418
 C        -2.796348        -0.080071         0.112802
 O        -3.136145        -0.123054         1.495842
 C        -3.477219         1.103191        -0.662747
 C        -4.592542         0.652673        -1.582745
 O        -3.813705         0.480341        -2.808427
 C        -2.802897         1.176789        -2.032803
 H         1.336171        -1.269644        -0.418741
 H         1.994535         0.138499        -1.127752
 H         1.987976         0.113600         0.688971
 H        -3.025988        -1.128700        -0.447149
 H        -2.658016        -0.940865         1.803756
 H        -3.547446         1.988694        -0.063965
 H        -5.164659        -0.279805        -1.241483
 H        -5.331945         1.440001        -1.849229
 H        -1.702889         0.670593        -2.123097
 H        -2.552577         2.233869        -2.266877
