19
Iteration:  3826charge 0 multiplicity 1
 C         1.349804        -0.048304        -0.477515
 C        -0.096218        -0.101650        -0.049204
 C        -1.225637        -0.300450         0.233779
 C        -2.689733        -0.260977         0.290607
 O        -3.434214         0.064566         1.495916
 C        -3.223400         0.809306        -0.774205
 C        -4.494399         0.453589        -1.601128
 O        -3.941374         1.128783        -2.816061
 C        -2.638114         1.082639        -2.182093
 H         1.307467        -0.032262        -1.554773
 H         1.728904         0.874331        -0.023803
 H         1.898030        -1.111730        -0.146381
 H        -2.960921        -1.209480        -0.066150
 H        -2.894351        -0.191484         2.298716
 H        -3.302917         1.810118        -0.207564
 H        -4.489016        -0.649759        -1.884737
 H        -5.435713         0.830454        -1.178473
 H        -2.158871         0.160030        -2.469561
 H        -2.184275         1.989224        -2.444330
