19
Iteration:   809
 C         1.353548        -0.143386        -0.485155
 C        -0.109605         0.075514        -0.095188
 C        -1.214003         0.216908         0.333699
 C        -2.668697        -0.144853         0.249573
 O        -3.422385         0.123128         1.479178
 C        -3.168286         0.767007        -0.816150
 C        -4.510463         0.405604        -1.469542
 O        -3.966744         0.978223        -2.745754
 C        -2.626673         0.719179        -2.279568
 H         2.025941        -0.082269         0.373980
 H         1.463899        -1.186510        -1.003728
 H         1.730324         0.683884        -1.114201
 H        -2.753176        -1.184646        -0.070423
 H        -3.981666        -0.633937         1.719358
 H        -3.245234         1.825134        -0.483598
 H        -4.743049        -0.655251        -1.618249
 H        -5.392400         0.870912        -1.094901
 H        -2.322757        -0.311564        -2.518644
 H        -1.934634         1.484127        -2.686306
