19
Iteration:  3780charge 0 multiplicity 1
 C         1.361670        -0.119594        -0.302328
 C        -0.057641        -0.108840         0.034028
 C        -1.201593         0.080882         0.202034
 C        -2.628542        -0.262580         0.129967
 O        -3.335884        -0.113136         1.391976
 C        -3.238815         0.814756        -0.791390
 C        -4.612406         0.608667        -1.462031
 O        -4.055830         1.121297        -2.808082
 C        -2.644030         0.882050        -2.271930
 H         1.526079         0.298335        -1.360069
 H         1.905711         0.418667         0.502824
 H         1.700812        -1.239359        -0.454833
 H        -2.705493        -1.249499        -0.260324
 H        -2.797384        -0.156950         2.190064
 H        -3.122417         1.794436        -0.282811
 H        -4.964993        -0.470094        -1.548441
 H        -5.438533         1.357146        -1.253825
 H        -2.414453        -0.153041        -2.489269
 H        -1.881418         1.697017        -2.366216
