19
Iteration:  2722charge 0 multiplicity 1
 C         1.598532        -0.171084         0.093402
 C         0.094874        -0.138810         0.065188
 C        -1.113234         0.047073         0.122648
 C        -2.529890        -0.274395        -0.039551
 O        -3.257439        -0.259726         1.259598
 C        -3.179682         0.892684        -0.926581
 C        -4.707289         0.706472        -1.261558
 O        -4.338029         0.887741        -2.766781
 C        -2.918266         1.145012        -2.409698
 H         2.071160        -0.703427         0.862678
 H         1.948636        -0.672384        -0.860751
 H         2.009201         0.891232        -0.196675
 H        -2.813171        -1.200347        -0.545457
 H        -3.115980         0.613713         1.613679
 H        -2.972767         1.796228        -0.402110
 H        -5.083448        -0.263611        -0.884765
 H        -5.278561         1.569385        -1.021670
 H        -2.323563         0.450998        -3.003578
 H        -2.573797         2.135895        -2.695684
