19
Iteration:  1215charge 0 multiplicity 1
 C         0.995878        -0.730055        -0.812554
 C        -0.360062        -0.473705        -0.309570
 C        -1.401381        -0.190049         0.273832
 C        -2.875973         0.063933         0.568946
 O        -3.028623         1.030279         1.619801
 C        -3.692854         0.335243        -0.740020
 C        -3.345527        -0.255052        -2.167332
 O        -3.315859         1.103767        -2.816533
 C        -3.542880         1.657510        -1.467574
 H         1.325462         0.243885        -1.186347
 H         1.659669        -1.281406        -0.174181
 H         1.007635        -1.162496        -1.848619
 H        -3.222821        -0.870716         1.119052
 H        -2.963187         1.902745         1.225157
 H        -4.676267         0.201670        -0.311392
 H        -2.344927        -0.816045        -2.149610
 H        -4.146848        -0.784470        -2.665255
 H        -2.735482         2.315962        -1.113592
 H        -4.401914         2.401324        -1.405008
