19
Iteration:   109charge 0 multiplicity 1
 C         1.580287        -0.536411         0.415195
 C         0.119240        -0.081974         0.112497
 C        -1.088032         0.085581        -0.114796
 C        -2.494298         0.042195         0.060093
 O        -2.821413         0.542113         1.330397
 C        -3.373243         0.824543        -0.943738
 C        -4.573033         0.102763        -1.537281
 O        -4.583453         0.796763        -2.793089
 C        -3.171559         1.078365        -2.517551
 H         1.877627         0.127613         1.135448
 H         1.669713        -1.654010         0.866484
 H         2.375075        -0.542114        -0.347542
 H        -2.799320        -1.006472         0.115490
 H        -2.296136         1.389936         1.437160
 H        -3.805218         1.727245        -0.474580
 H        -4.294967        -0.932907        -1.756101
 H        -5.565189        -0.027050        -1.059404
 H        -2.452903         0.395005        -3.008655
 H        -2.938908         2.101279        -2.729920
