19
Iteration:  2038
 C         1.342980        -0.137878        -0.462560
 C         0.016750        -0.117543         0.098512
 C        -1.190008        -0.040906         0.216100
 C        -2.740928        -0.001884         0.311073
 O        -3.391158         0.399347         1.497888
 C        -3.102029         0.846937        -0.939626
 C        -4.536182         0.698180        -1.426472
 O        -4.080739         0.657387        -2.779086
 C        -2.697163         0.468052        -2.345956
 H         2.211467        -0.559114         0.135999
 H         1.190419        -0.591263        -1.414537
 H         1.706581         0.841255        -0.763758
 H        -2.904248        -1.063204         0.161897
 H        -3.111644         1.325236         1.706284
 H        -2.803570         1.906622        -0.717382
 H        -5.003715        -0.377115        -1.201091
 H        -5.319397         1.451568        -1.196585
 H        -2.231231        -0.556975        -2.444710
 H        -2.021660         1.298107        -2.690431
