19
Iteration:  2384charge 0 multiplicity 1
 C         1.412662         0.294455         0.378312
 C         0.054680        -0.182701         0.184338
 C        -1.076297        -0.643540         0.033426
 C        -2.528648        -0.341993        -0.147098
 O        -2.998624         0.108497         1.123507
 C        -3.026951         0.746865        -1.102557
 C        -4.552239         1.013184        -1.144347
 O        -4.507386         1.052390        -2.636713
 C        -3.155688         0.600335        -2.647997
 H         1.790418         1.039009        -0.359217
 H         1.436529         1.093009         1.262191
 H         2.170267        -0.485521         0.495223
 H        -3.098693        -1.242959        -0.282654
 H        -2.359810        -0.213001         1.814080
 H        -2.584795         1.725959        -0.887561
 H        -5.212850         0.203420        -0.895995
 H        -4.913599         1.979890        -0.821588
 H        -3.035792        -0.509122        -3.123514
 H        -2.343516         1.152234        -3.169958
