19
Iteration:  3132charge 0 multiplicity 1
 C         1.461786        -0.195219         0.048465
 C        -0.046952        -0.114714        -0.127480
 C        -1.283942        -0.156563        -0.253082
 C        -2.724666        -0.089047         0.021549
 O        -2.995451         0.036910         1.440227
 C        -3.387676         1.035837        -0.753995
 C        -4.664330         0.691709        -1.481446
 O        -4.005422         0.513723        -2.749827
 C        -2.842391         1.227742        -2.201756
 H         1.903068        -0.265426        -0.915856
 H         1.736238         0.665019         0.735371
 H         1.793174        -1.155811         0.675443
 H        -3.128391        -1.159971        -0.374821
 H        -2.707052        -0.820213         1.873421
 H        -3.307594         1.950695        -0.019960
 H        -5.161464        -0.274744        -1.361811
 H        -5.326055         1.568857        -1.396775
 H        -1.934735         0.700424        -2.274126
 H        -2.700611         2.339841        -2.545276
