19
Iteration:  3458
 C         1.465970        -0.047322         0.553924
 C         0.142965        -0.150507         0.004871
 C        -1.058675        -0.153723        -0.161371
 C        -2.459630        -0.213556        -0.173599
 O        -3.102729        -0.049226         1.182067
 C        -2.996660         0.863886        -1.090967
 C        -4.548741         1.064690        -1.144246
 O        -4.594060         0.881109        -2.587252
 C        -3.140842         0.700198        -2.625277
 H         1.361808        -0.366994         1.701031
 H         2.169857        -0.787787         0.083994
 H         1.789688         1.016956         0.387157
 H        -2.738733        -1.270319        -0.419076
 H        -2.998900        -0.931750         1.632910
 H        -2.628318         1.750572        -0.717816
 H        -5.242804         0.384458        -0.651759
 H        -4.746727         2.142104        -1.142403
 H        -2.749458        -0.261988        -3.003976
 H        -2.639133         1.413775        -3.280838
