19
Iteration:  3341charge 0 multiplicity 1
 C         1.362994        -0.000254        -0.337409
 C        -0.039234        -0.091316        -0.040386
 C        -1.254445        -0.285807         0.163430
 C        -2.753678        -0.255852         0.176015
 O        -3.334857        -0.043328         1.494731
 C        -3.176029         0.859998        -0.824524
 C        -4.559657         0.674193        -1.466946
 O        -4.003024         1.117583        -2.748448
 C        -2.650205         0.776919        -2.272298
 H         1.882141        -0.886849        -0.085742
 H         1.637434         0.122336        -1.429633
 H         1.966343         0.858187         0.201136
 H        -3.089926        -1.266049        -0.383935
 H        -3.260167         0.954132         1.527188
 H        -3.223413         1.933678        -0.317096
 H        -4.693831        -0.424784        -1.435847
 H        -5.370972         1.296172        -1.066998
 H        -2.324382        -0.278354        -2.502486
 H        -1.987139         1.530346        -2.733321
