19
Iteration:   138charge 0 multiplicity 1
 C         1.644101        -0.418807         0.346390
 C         0.083192        -0.402985         0.031152
 C        -1.102285        -0.014302        -0.075312
 C        -2.512517         0.154145        -0.001204
 O        -2.967599         0.625889         1.429307
 C        -3.401711         0.881226        -0.971131
 C        -4.536249        -0.024566        -1.546286
 O        -4.450416         0.755734        -2.716127
 C        -3.156929         1.196484        -2.526896
 H         1.902980         0.600087         0.808241
 H         1.891952        -1.226124         1.079343
 H         2.315985        -0.563695        -0.516911
 H        -2.869669        -0.925329        -0.011413
 H        -2.206391         1.179582         1.755148
 H        -4.079178         1.604366        -0.404613
 H        -4.271192        -1.095770        -1.855162
 H        -5.594312         0.222828        -1.065424
 H        -2.270226         0.553316        -2.922951
 H        -3.058758         2.265086        -2.885346
