19
Iteration:  2953charge 0 multiplicity 1
 C         1.393728         0.115848         0.654547
 C         0.045371        -0.078386         0.213066
 C        -1.030579        -0.176562        -0.372043
 C        -2.466953        -0.282987        -0.333040
 O        -3.008625        -0.430656         1.086616
 C        -2.913653         0.941486        -1.112850
 C        -4.441068         1.295176        -1.040989
 O        -4.628309         1.014839        -2.463098
 C        -3.313348         0.484963        -2.639468
 H         1.792095         1.051041         0.664586
 H         1.597723        -0.353461         1.658977
 H         2.020418        -0.473551        -0.155895
 H        -2.847498        -1.246622        -0.846985
 H        -2.684052         0.293576         1.665077
 H        -2.272441         1.778100        -1.048730
 H        -4.948935         0.433675        -0.605281
 H        -4.615836         2.302465        -0.779727
 H        -3.235952        -0.542578        -3.009273
 H        -2.618656         0.967540        -3.479275
