19
Iteration:  3763
 C         1.428353        -0.155416        -0.199228
 C         0.018702        -0.070241         0.038511
 C        -1.189372         0.076154         0.179451
 C        -2.686451        -0.146633         0.111740
 O        -3.300144        -0.195941         1.409514
 C        -3.227910         0.808296        -0.853092
 C        -4.671673         0.766126        -1.504621
 O        -4.077578         1.053537        -2.768679
 C        -2.754337         0.803224        -2.284993
 H         1.787721         0.389159        -1.054196
 H         2.042841         0.308446         0.577464
 H         1.818388        -1.115439        -0.526350
 H        -2.814152        -1.245632        -0.274853
 H        -2.585856        -0.510942         1.995749
 H        -3.212170         1.837572        -0.448212
 H        -5.092395        -0.264122        -1.478752
 H        -5.339486         1.513458        -1.104151
 H        -2.183954        -0.064373        -2.707324
 H        -2.104282         1.620104        -2.603370
