19
Iteration:  1177
 C         0.705444        -0.901574        -1.095873
 C        -0.283342        -0.317842        -0.111752
 C        -1.442849        -0.017088         0.278311
 C        -2.831286         0.040423         0.578946
 O        -3.187079         0.990619         1.499388
 C        -3.629769         0.314460        -0.691721
 C        -3.010337        -0.194732        -1.979638
 O        -3.283591         1.043253        -2.797426
 C        -3.593407         1.705369        -1.438397
 H         1.321128         0.094914        -1.259289
 H         1.510582        -1.696122        -0.865794
 H         0.045829        -1.210002        -1.922603
 H        -3.143146        -0.963291         0.852043
 H        -2.468734         1.697199         1.511112
 H        -4.716648        -0.041399        -0.611740
 H        -1.969103        -0.204858        -1.863695
 H        -3.383603        -1.118425        -2.446501
 H        -2.756245         2.410894        -1.244592
 H        -4.571245         2.135910        -1.364162
