19
Iteration:   994
 C         1.089960        -0.277742        -0.283952
 C        -0.302077        -0.437186        -0.240355
 C        -1.535102        -0.299388        -0.349854
 C        -2.792420        -0.085757         0.235917
 O        -2.567409         0.838335         1.400827
 C        -3.843858         0.577935        -0.632102
 C        -4.097192        -0.186366        -1.937724
 O        -3.281632         0.778128        -2.732026
 C        -3.290513         1.739964        -1.490399
 H         1.578205         0.602123         0.319481
 H         1.465984        -1.259670         0.057133
 H         1.409979        -0.030774        -1.338407
 H        -3.175674        -0.978991         0.684994
 H        -3.310870         0.568894         1.969942
 H        -4.750312         0.840007        -0.028315
 H        -3.628063        -1.221356        -2.104109
 H        -5.149480        -0.298938        -2.382887
 H        -2.263082         2.107408        -1.312931
 H        -4.004880         2.606247        -1.713607
