19
Iteration:  1140
 C         0.624965        -0.931915        -1.152530
 C        -0.437984        -0.314475        -0.318832
 C        -1.343826         0.060102         0.399623
 C        -2.796410         0.131216         0.678177
 O        -3.345618         1.135175         1.559140
 C        -3.445752         0.217786        -0.775725
 C        -2.920990        -0.212068        -2.193046
 O        -3.292659         1.065853        -2.729019
 C        -3.548615         1.579929        -1.338482
 H         1.364417        -0.221536        -1.407001
 H         1.115259        -1.836679        -0.605158
 H         0.405738        -1.158512        -2.212742
 H        -3.087216        -0.755384         1.201873
 H        -2.927359         1.028592         2.456544
 H        -4.413900        -0.216151        -0.604886
 H        -1.732218        -0.387186        -2.271408
 H        -3.445016        -1.153314        -2.515795
 H        -2.751504         2.327905        -1.075400
 H        -4.583892         1.996795        -1.347467
