19
Iteration:  4214charge 0 multiplicity 1
 C         1.444731         0.168637         0.635043
 C         0.102624        -0.196018         0.227826
 C        -0.978338        -0.322037        -0.230033
 C        -2.385974        -0.465552        -0.432361
 O        -3.079095        -0.518217         0.854545
 C        -3.013956         0.869737        -1.059350
 C        -4.481005         1.295003        -0.978692
 O        -4.681959         1.152406        -2.431699
 C        -3.254695         0.862096        -2.560635
 H         1.368411         1.020298         1.216227
 H         1.937004        -0.647493         1.059397
 H         1.972265         0.541799        -0.301066
 H        -2.705270        -1.419286        -1.051047
 H        -2.654274        -1.268624         1.347265
 H        -2.128403         1.578749        -0.783212
 H        -5.267580         0.761748        -0.477323
 H        -4.587378         2.287049        -0.621734
 H        -2.952322        -0.177078        -2.879179
 H        -2.730656         1.783955        -3.031897
