19
Iteration:  2366
 C         1.410474         0.289712         0.477677
 C         0.133268        -0.284374         0.108969
 C        -1.070292        -0.479985         0.027693
 C        -2.525941        -0.417897        -0.150703
 O        -3.144048         0.203020         1.063179
 C        -2.890160         0.779622        -1.188397
 C        -4.433666         0.947463        -1.093003
 O        -4.604299         1.005172        -2.545254
 C        -3.172612         0.623756        -2.679294
 H         1.623225         1.036080        -0.375171
 H         1.396027         0.676741         1.443002
 H         2.188870        -0.453360         0.481771
 H        -3.011049        -1.384099        -0.477945
 H        -2.573339        -0.188045         1.785464
 H        -2.244631         1.616588        -0.818397
 H        -4.976311         0.127994        -0.534363
 H        -4.830534         1.921689        -0.666565
 H        -3.006301        -0.275334        -3.230687
 H        -2.726564         1.251098        -3.460935
