19
Iteration:   577
 C         1.614194        -0.377346         0.808565
 C         0.347153         0.102982         0.299850
 C        -0.796499         0.400555        -0.094152
 C        -2.359235         0.122094        -0.265647
 O        -3.079487         0.166023         0.979170
 C        -3.085543         0.879231        -1.367881
 C        -4.607186         0.863148        -1.080192
 O        -4.871152         0.556385        -2.509244
 C        -3.406146         0.344240        -2.795249
 H         1.674478        -1.484005         0.879148
 H         2.429194        -0.050386         0.225291
 H         1.721769         0.098927         1.766994
 H        -2.313734        -0.915555        -0.636012
 H        -2.462532        -0.189516         1.687065
 H        -2.758008         2.015360        -1.343851
 H        -4.941486         0.111030        -0.353003
 H        -5.054960         1.833340        -0.744705
 H        -3.276335        -0.719183        -2.908884
 H        -3.014476         0.894652        -3.692005
