19
Iteration:  2808charge 0 multiplicity 1
 C         1.644816         0.072390         0.389870
 C         0.179568        -0.021244         0.089810
 C        -1.042442        -0.076238         0.077265
 C        -2.496895        -0.382168        -0.178535
 O        -3.237826        -0.394129         1.066523
 C        -3.105682         0.716184        -1.065816
 C        -4.531924         1.117925        -1.143769
 O        -4.536039         1.242788        -2.600830
 C        -3.231885         0.589293        -2.578250
 H         1.734990         0.517511         1.374506
 H         2.144339        -0.909418         0.438151
 H         2.165563         0.905212        -0.297005
 H        -2.523602        -1.377157        -0.656647
 H        -2.633008        -0.543230         1.807965
 H        -2.597201         1.658425        -1.005288
 H        -5.236125         0.275788        -0.902777
 H        -4.817226         2.093583        -0.617817
 H        -3.308332        -0.373937        -3.105498
 H        -2.261725         1.142240        -3.104550
