19
Iteration:  4253charge 0 multiplicity 1
 C         1.479734         0.133363         0.624894
 C         0.173096        -0.093761         0.165881
 C        -0.972684        -0.353005        -0.119210
 C        -2.426499        -0.383026        -0.398584
 O        -3.201839        -0.592702         0.887759
 C        -2.871568         0.894144        -1.129066
 C        -4.457285         1.125370        -0.995252
 O        -4.697700         1.287373        -2.423849
 C        -3.304672         0.851728        -2.605868
 H         1.670604         1.227716         0.951260
 H         1.858484        -0.626031         1.388401
 H         2.289047         0.000581        -0.138300
 H        -2.615795        -1.164914        -1.010288
 H        -2.622724        -0.791425         1.620058
 H        -2.423969         1.820716        -0.900523
 H        -5.021490         0.169148        -0.614194
 H        -4.741013         2.015198        -0.270685
 H        -3.356557        -0.088136        -3.130967
 H        -2.811690         1.379755        -3.366073
