19
Iteration:  2088
 C         1.354829        -0.140150         0.036580
 C        -0.037469        -0.078440        -0.166967
 C        -1.294819        -0.069659        -0.101673
 C        -2.705185        -0.032252         0.228772
 O        -2.840777         0.425946         1.621620
 C        -3.338905         0.893420        -0.884120
 C        -4.747942         0.671106        -1.566863
 O        -4.106498         0.703784        -2.895432
 C        -2.840043         0.462002        -2.326181
 H         1.494728        -0.219499         1.139734
 H         1.861647        -1.010965        -0.526106
 H         1.991648         0.743036        -0.218148
 H        -3.029784        -1.030577         0.178051
 H        -2.023847         0.335377         2.095524
 H        -3.165296         1.915130        -0.608980
 H        -5.333549        -0.277523        -1.215924
 H        -5.482715         1.524854        -1.587309
 H        -2.453365        -0.535647        -2.393634
 H        -2.097514         1.178656        -2.645916
