19
Iteration:  4450
 C         1.507689         0.012737         0.006648
 C         0.086353        -0.180151         0.000538
 C        -1.134661        -0.164147        -0.081957
 C        -2.684673        -0.352009        -0.125015
 O        -3.191746        -0.443305         1.122141
 C        -3.294681         0.942330        -0.683742
 C        -4.671161         0.725410        -1.364318
 O        -4.093583         0.873419        -2.725875
 C        -2.888186         1.519254        -2.071152
 H         1.934508        -0.139080        -1.013733
 H         1.823001         1.022544         0.381016
 H         2.051153        -0.745600         0.563017
 H        -2.966136        -1.240998        -0.814370
 H        -2.992870        -1.351066         1.458342
 H        -3.453974         1.548444         0.157773
 H        -5.243969        -0.114203        -1.199901
 H        -5.240494         1.605199        -1.196137
 H        -1.941468         1.028368        -2.330867
 H        -3.159832         2.612645        -2.049581
