19
Iteration:   747
 C         1.365317         0.228741        -0.210362
 C        -0.059787        -0.036406         0.082326
 C        -1.207208        -0.289885         0.089802
 C        -2.644544        -0.224844         0.145938
 O        -3.325031         0.038504         1.380339
 C        -3.036622         0.860365        -0.863573
 C        -4.557220         1.075073        -1.407959
 O        -4.145349         0.627135        -2.770637
 C        -2.789420         0.514908        -2.320798
 H         2.104906         0.000242         0.561558
 H         1.713938        -0.308975        -1.124957
 H         1.357067         1.286524        -0.533214
 H        -3.125407        -1.172689        -0.336405
 H        -2.766711         0.006104         2.197719
 H        -2.529465         1.742197        -0.541569
 H        -5.401018         0.436988        -1.013485
 H        -4.856444         2.174844        -1.411223
 H        -2.299503        -0.495933        -2.433219
 H        -2.235511         1.292539        -2.823959
