19
Iteration:  1522
 C         1.343751         0.243923        -0.128200
 C        -0.060516        -0.052761         0.066325
 C        -1.226482        -0.275403         0.117295
 C        -2.681317        -0.321026         0.064902
 O        -3.328727        -0.158351         1.347620
 C        -3.022597         0.768904        -0.939600
 C        -4.496775         1.149568        -1.305074
 O        -4.196714         0.854454        -2.695309
 C        -2.761718         0.539581        -2.414336
 H         1.567508         0.372607        -1.195259
 H         1.786448         1.005638         0.459278
 H         1.993156        -0.608499         0.039118
 H        -3.027217        -1.384048        -0.131335
 H        -3.034288         0.706689         1.719506
 H        -2.362253         1.560715        -0.628209
 H        -5.305925         0.540031        -0.903848
 H        -4.533164         2.263042        -1.231331
 H        -2.405750        -0.433062        -2.788379
 H        -2.126625         1.350836        -2.830441
