19
Iteration:   665charge 0 multiplicity 1
 C         1.310430         0.276273         0.501902
 C         0.074794        -0.318141         0.138345
 C        -1.129374        -0.285302        -0.208740
 C        -2.565389        -0.175657        -0.264072
 O        -3.009414         0.084301         1.081872
 C        -2.966324         0.988034        -1.107630
 C        -4.446780         1.311298        -1.243017
 O        -4.507588         0.313815        -2.358388
 C        -3.160336         0.521971        -2.551713
 H         1.779790        -0.270062         1.349637
 H         2.013985         0.289897        -0.326781
 H         1.266149         1.261191         0.965341
 H        -3.156472        -1.002545        -0.548276
 H        -2.197929         0.584400         1.415402
 H        -2.304304         1.909499        -0.925291
 H        -5.062752         0.990722        -0.411876
 H        -4.666230         2.321592        -1.596865
 H        -2.682789        -0.405082        -2.847548
 H        -2.841709         1.258405        -3.356021
