19
Iteration:  2776
 C         1.536706        -0.135326         0.214340
 C         0.096456         0.080831         0.173157
 C        -1.113185         0.101871         0.078077
 C        -2.496317        -0.171212        -0.103358
 O        -3.179103        -0.525153         1.082549
 C        -3.133064         0.917351        -0.962716
 C        -4.577507         0.997849        -1.239543
 O        -4.421104         1.137908        -2.646931
 C        -3.082135         0.591809        -2.483516
 H         1.940657        -0.020500         1.204984
 H         1.825327        -1.107358        -0.262485
 H         2.083713         0.818851        -0.285167
 H        -2.591783        -0.972177        -0.797175
 H        -2.615275        -0.325656         1.829058
 H        -2.728399         1.888979        -0.880920
 H        -5.117857         0.036619        -0.977279
 H        -5.157738         1.684574        -0.642096
 H        -3.241512        -0.415386        -2.728505
 H        -2.286285         1.172100        -3.075158
