19
Iteration:  1767charge 0 multiplicity 1
 C         1.493367        -0.590201         0.569586
 C         0.218623         0.145842         0.162411
 C        -0.925841         0.277854        -0.058430
 C        -2.346760         0.092951        -0.145406
 O        -3.036669         0.280818         1.116955
 C        -3.187600         0.972341        -1.154033
 C        -4.640258         0.644347        -1.230667
 O        -4.648928         0.721344        -2.660904
 C        -3.246489         0.466594        -2.607863
 H         1.785927        -1.360971        -0.059850
 H         2.414128         0.119942         0.464553
 H         1.401274        -0.773296         1.644059
 H        -2.473503        -0.961128        -0.452929
 H        -2.424591         0.574874         1.854743
 H        -2.831114         2.025428        -1.016045
 H        -4.943867        -0.345223        -0.866708
 H        -5.372395         1.364590        -0.679298
 H        -2.969699        -0.663537        -2.658277
 H        -2.717667         1.048172        -3.491024
