19
Iteration:  1626charge 0 multiplicity 1
 C         1.421576         0.239429         0.613246
 C         0.082331        -0.135670         0.235201
 C        -1.045362        -0.554363        -0.084621
 C        -2.554189        -0.347189        -0.324666
 O        -3.062276         0.079986         1.035568
 C        -2.858305         0.896252        -1.237092
 C        -4.357337         1.282909        -1.182753
 O        -4.707659         0.590530        -2.359803
 C        -3.268531         0.594904        -2.738549
 H         2.213653         0.282922        -0.094866
 H         1.618291         1.281842         1.115745
 H         1.608141        -0.415607         1.484684
 H        -3.090540        -1.196008        -0.482587
 H        -2.308087         0.603042         1.445956
 H        -2.053989         1.648517        -1.188047
 H        -4.886025         1.003751        -0.271301
 H        -4.502241         2.360107        -1.159190
 H        -2.992718        -0.385018        -3.154327
 H        -3.056319         1.508301        -3.407883
