19
Iteration:  2920charge 0 multiplicity 1
 C         1.300643         0.298931         0.760727
 C         0.105108        -0.094830         0.028549
 C        -1.016019        -0.552192        -0.196801
 C        -2.489487        -0.426965        -0.349590
 O        -2.899701        -0.269653         1.028659
 C        -2.922567         0.741957        -1.137907
 C        -4.382966         1.345857        -1.055024
 O        -4.707945         1.135187        -2.496588
 C        -3.357835         0.548511        -2.638363
 H         1.386584         1.304061         0.992872
 H         1.438672        -0.415317         1.624315
 H         2.214891         0.149769         0.056076
 H        -2.952146        -1.388028        -0.761311
 H        -2.028856        -0.124420         1.505844
 H        -2.159586         1.455807        -1.009729
 H        -5.209515         0.774508        -0.566996
 H        -4.558603         2.322795        -0.644542
 H        -3.345214        -0.474271        -3.046203
 H        -2.627881         1.361745        -3.140149
