19
Iteration:   218charge 0 multiplicity 1
 C         1.326746        -0.272110        -0.144997
 C        -0.087473        -0.139094        -0.134440
 C        -1.261621         0.035267        -0.076596
 C        -2.700118         0.042013         0.304711
 O        -2.911679         0.613828         1.525566
 C        -3.489804         0.807184        -0.798799
 C        -4.614707         0.223921        -1.654313
 O        -3.945436         0.616462        -2.881801
 C        -2.807831         0.932130        -2.150369
 H         1.671868         0.629684        -0.467610
 H         1.717340        -0.317459         0.951418
 H         1.667781        -0.952671        -0.909571
 H        -3.052542        -1.035311         0.426876
 H        -2.470111         0.035169         2.169123
 H        -4.001005         1.609356        -0.262635
 H        -5.011797        -0.833279        -1.561386
 H        -5.613964         0.813930        -1.699099
 H        -1.962873         0.138605        -2.182828
 H        -2.312714         1.852746        -2.435920
