19
Iteration:  2584charge 0 multiplicity 1
 C         1.363945        -0.217674        -0.319768
 C        -0.056608         0.025317        -0.155844
 C        -1.244433         0.016116         0.057992
 C        -2.679649        -0.097059         0.090734
 O        -3.308078        -0.052856         1.418099
 C        -3.334819         1.011695        -0.726292
 C        -4.650884         0.536587        -1.489362
 O        -3.844111         0.556845        -2.704191
 C        -2.672289         1.229189        -2.120960
 H         1.614513        -1.297212        -0.601331
 H         1.813580         0.548256        -1.016217
 H         1.926253         0.041855         0.540705
 H        -2.904214        -1.077629        -0.358717
 H        -3.048352        -0.879238         1.911328
 H        -3.522350         1.866409        -0.013346
 H        -4.982052        -0.461277        -1.248463
 H        -5.457750         1.276557        -1.474937
 H        -1.704594         0.773048        -2.206931
 H        -2.709895         2.253939        -2.513474
