19
Iteration:   389charge 0 multiplicity 1
 C         1.357556         0.108629        -0.378999
 C        -0.087131         0.067419        -0.129895
 C        -1.249180        -0.171098         0.154655
 C        -2.705728        -0.159782         0.266805
 O        -3.367299         0.324178         1.529941
 C        -3.094261         0.844079        -0.825243
 C        -4.516505         1.026675        -1.474013
 O        -4.033825         0.485430        -2.768741
 C        -2.698418         0.347796        -2.280577
 H         1.410331        -0.175300        -1.517181
 H         1.889779         1.020364        -0.312343
 H         2.026785        -0.549903         0.208787
 H        -3.056690        -1.197576         0.004606
 H        -3.317545        -0.373443         2.211472
 H        -2.755241         1.913836        -0.425990
 H        -5.397880         0.507292        -1.039524
 H        -4.685739         2.100839        -1.551079
 H        -2.569873        -0.728715        -2.362252
 H        -1.916577         0.924586        -2.903680
