19
Iteration:   300charge 0 multiplicity 1
 C         1.070541        -0.043867        -0.760259
 C        -0.061495        -0.071821         0.183639
 C        -1.257432        -0.047472         0.429157
 C        -2.644262        -0.128689         0.341994
 O        -3.385897         0.476046         1.406845
 C        -3.131981         0.809817        -0.837432
 C        -4.517754         0.595337        -1.501466
 O        -3.907657         0.479304        -2.818150
 C        -2.523338         0.767066        -2.229490
 H         0.805040         0.512492        -1.766413
 H         1.912578         0.296651        -0.305746
 H         1.460994        -1.070707        -0.837288
 H        -2.937794        -1.171968         0.149398
 H        -3.048447         0.219018         2.253042
 H        -3.248248         1.761320        -0.233260
 H        -5.187681        -0.276307        -1.279380
 H        -5.138907         1.451332        -1.369933
 H        -1.973881        -0.099420        -2.517591
 H        -1.865221         1.690941        -2.538076
