19
Iteration:  1246charge 0 multiplicity 1
 C         1.118180        -0.596556        -0.521452
 C        -0.312776        -0.461514        -0.407779
 C        -1.478112        -0.285449        -0.007505
 C        -2.872266        -0.000496         0.401427
 O        -2.950494         0.991990         1.421992
 C        -3.733550         0.390262        -0.726175
 C        -3.632247        -0.285580        -2.080627
 O        -3.361220         1.032344        -2.676601
 C        -3.394037         1.749171        -1.373649
 H         1.426434         0.518657        -0.678011
 H         1.606271        -0.883805         0.374749
 H         1.353238        -1.288634        -1.381106
 H        -3.246922        -0.906445         0.945417
 H        -2.398318         1.796824         1.278895
 H        -4.719030         0.367819        -0.212916
 H        -2.915115        -1.034123        -2.191562
 H        -4.608783        -0.574947        -2.399815
 H        -2.378514         2.123226        -1.171837
 H        -4.160853         2.557789        -1.422215
