19
Iteration:  1517charge 0 multiplicity 1
 C         1.337653         0.202826        -0.144030
 C        -0.030725        -0.049473         0.078278
 C        -1.271906        -0.219908         0.120546
 C        -2.665332        -0.318042         0.107850
 O        -3.329808        -0.143635         1.339568
 C        -3.021001         0.737927        -0.925537
 C        -4.470586         1.067407        -1.317703
 O        -4.178361         0.878240        -2.702540
 C        -2.759031         0.586069        -2.396855
 H         1.355585         0.325397        -1.266231
 H         1.793525         1.105573         0.425999
 H         1.966700        -0.724578        -0.108478
 H        -3.063015        -1.300493        -0.260017
 H        -3.105137         0.713546         1.705243
 H        -2.396378         1.609895        -0.566533
 H        -5.348831         0.519788        -0.890406
 H        -4.724857         2.140527        -1.252227
 H        -2.403187        -0.366579        -2.858823
 H        -2.091306         1.287608        -2.906544
