19
Iteration:  1183charge 0 multiplicity 1
 C         0.741976        -0.859870        -1.042019
 C        -0.297024        -0.338789        -0.089051
 C        -1.406106        -0.084169         0.212938
 C        -2.837077         0.058301         0.556483
 O        -3.183370         1.003416         1.549693
 C        -3.632205         0.327677        -0.678042
 C        -3.037450        -0.221983        -2.019475
 O        -3.304763         1.041899        -2.758992
 C        -3.598349         1.735300        -1.477964
 H         1.300902        -0.052180        -1.437516
 H         1.514689        -1.615856        -0.829693
 H         0.213671        -1.127035        -1.964795
 H        -3.228790        -0.942356         0.889694
 H        -2.521066         1.687739         1.334054
 H        -4.665836         0.114860        -0.602751
 H        -1.876171        -0.449218        -1.920966
 H        -3.436745        -1.077861        -2.600630
 H        -2.754831         2.371847        -1.164606
 H        -4.629906         2.162780        -1.408975
