19
Iteration:  3084
 C         1.576508        -0.278224         0.242583
 C         0.151190        -0.147514        -0.003321
 C        -1.060490         0.058142        -0.093969
 C        -2.579060        -0.063915        -0.083473
 O        -3.150664        -0.064219         1.264827
 C        -3.271067         1.062918        -0.869483
 C        -4.706166         0.732292        -1.309819
 O        -4.322180         0.599097        -2.742051
 C        -2.987297         1.097051        -2.404390
 H         2.193513         0.129969        -0.670787
 H         1.824590         0.211588         1.261949
 H         1.799102        -1.436285         0.389804
 H        -2.869197        -1.023179        -0.614974
 H        -2.799602        -0.764903         1.818423
 H        -3.169679         1.955305        -0.301095
 H        -5.156158        -0.138484        -0.765146
 H        -5.403632         1.621572        -1.263729
 H        -2.207408         0.406955        -2.811898
 H        -2.843340         2.109273        -2.677691
