19
Iteration:  1865
 C         1.347415        -0.045273        -0.027852
 C        -0.052687        -0.193507        -0.028020
 C        -1.283995        -0.456351         0.030189
 C        -2.699617        -0.045494         0.122075
 O        -2.990795         0.624954         1.376366
 C        -3.183226         0.964525        -0.904585
 C        -4.617718         0.802379        -1.423143
 O        -4.194282         0.439161        -2.754058
 C        -2.761073         0.642678        -2.348049
 H         1.922655        -0.897389        -0.305089
 H         1.675046         0.695908        -0.873278
 H         1.577636         0.443372         0.943874
 H        -3.439176        -0.999484        -0.074598
 H        -2.733122        -0.031229         2.073298
 H        -2.985180         1.951865        -0.411957
 H        -5.120553        -0.063628        -1.042488
 H        -5.237861         1.776407        -1.304656
 H        -2.126593        -0.181668        -2.606152
 H        -2.269699         1.411981        -2.928668
