19
Iteration:   545charge 0 multiplicity 1
 C         1.588524        -0.383441         0.720203
 C         0.213724         0.068832         0.392964
 C        -0.890467         0.358262        -0.093355
 C        -2.397427         0.161847        -0.300698
 O        -2.826543         0.155294         1.041136
 C        -3.195331         0.975535        -1.306445
 C        -4.720260         0.750442        -1.226241
 O        -4.790014         0.665838        -2.588858
 C        -3.323414         0.276677        -2.614017
 H         1.781814        -1.409593         0.560955
 H         2.310287         0.235682         0.162612
 H         1.755674        -0.291777         1.781977
 H        -2.586478        -0.899246        -0.671063
 H        -2.205865         0.845720         1.276903
 H        -2.749348         2.015801        -1.097051
 H        -4.940424        -0.210024        -0.724502
 H        -5.376574         1.604654        -0.906589
 H        -3.416387        -0.793685        -2.483078
 H        -2.731364         0.440401        -3.539735
