19
Iteration:   464charge 0 multiplicity 1
 C         1.495294         0.079266         0.281602
 C         0.079355        -0.225812         0.108518
 C        -1.129362        -0.358387        -0.099346
 C        -2.633565        -0.112552         0.042336
 O        -3.051374         0.511689         1.260468
 C        -3.090936         0.909349        -1.037862
 C        -4.598007         0.732673        -1.222501
 O        -4.441302         0.615825        -2.712873
 C        -3.020453         0.529778        -2.601810
 H         2.150978        -0.515083        -0.400500
 H         1.728103         1.055164         0.095819
 H         1.802748        -0.049879         1.316241
 H        -3.186229        -1.055176        -0.071770
 H        -2.285147         1.020387         1.569955
 H        -2.821891         1.963432        -0.658795
 H        -5.057169        -0.179627        -0.789240
 H        -5.228854         1.559445        -0.951798
 H        -2.629600        -0.476331        -2.672646
 H        -2.536222         1.143505        -3.380703
