19
Iteration:  2213
 C         1.635108        -0.351213         0.514784
 C         0.246721        -0.016191         0.298413
 C        -0.898671         0.043775        -0.013633
 C        -2.406612         0.022607        -0.226008
 O        -3.219590         0.155861         0.991885
 C        -3.078092         1.042663        -1.173007
 C        -4.617658         0.791886        -1.121513
 O        -4.671872         0.685918        -2.563796
 C        -3.221066         0.587898        -2.683142
 H         2.201114         0.227178         1.380384
 H         1.575805        -1.286077         1.037581
 H         2.161292        -0.402443        -0.449780
 H        -2.651215        -0.864704        -0.693016
 H        -2.751019         0.044385         1.819581
 H        -2.669951         2.082968        -1.038565
 H        -5.012562        -0.090768        -0.461386
 H        -5.305882         1.649895        -0.792664
 H        -2.928941        -0.445474        -2.847129
 H        -2.993918         1.328738        -3.490451
