19
Iteration:   990charge 0 multiplicity 1
 C         1.097181        -0.266012        -0.252819
 C        -0.342521        -0.412609        -0.246697
 C        -1.503220        -0.271753        -0.344117
 C        -2.808073        -0.128506         0.225110
 O        -2.539941         0.825724         1.412293
 C        -3.875881         0.610549        -0.648175
 C        -4.147571        -0.188123        -1.938048
 O        -3.286158         0.784554        -2.753268
 C        -3.267009         1.700052        -1.515578
 H         1.627738         0.514718         0.358470
 H         1.678301        -1.145804        -0.019005
 H         1.424260        -0.122960        -1.275543
 H        -3.165748        -1.087036         0.681689
 H        -3.207741         0.626495         2.131906
 H        -4.703973         0.867887         0.043105
 H        -3.650097        -1.108240        -2.050528
 H        -5.163667        -0.319315        -2.381743
 H        -2.253979         2.055769        -1.221342
 H        -3.873100         2.606993        -1.700089
