19
Iteration:   380
 C         1.323668         0.078614        -0.425646
 C        -0.105575         0.112627        -0.210933
 C        -1.256969        -0.072474         0.193818
 C        -2.746194        -0.224620         0.212143
 O        -3.412994         0.319007         1.518535
 C        -3.045330         0.883953        -0.821670
 C        -4.444615         1.020775        -1.471553
 O        -4.026022         0.491720        -2.765411
 C        -2.663506         0.324669        -2.160827
 H         1.494439        -0.202165        -1.546362
 H         1.740253         1.134563        -0.360213
 H         1.777455        -0.805658         0.058061
 H        -3.074096        -1.254742        -0.007247
 H        -3.455247        -0.426567         2.139731
 H        -2.669806         1.817345        -0.316575
 H        -5.181444         0.326291        -1.037239
 H        -4.842947         2.080976        -1.499547
 H        -2.328049        -0.710051        -1.903325
 H        -1.888870         0.751340        -2.878930
