19
Iteration:   709
 C         1.249287         0.294983         0.154169
 C        -0.115250        -0.005135        -0.148528
 C        -1.267330        -0.495305        -0.052086
 C        -2.691857        -0.236232        -0.007422
 O        -3.140077         0.014933         1.331809
 C        -2.848035         0.953788        -0.971629
 C        -4.401611         1.229854        -1.265700
 O        -4.307520         0.432852        -2.562670
 C        -2.891360         0.501637        -2.461250
 H         1.523019        -0.104888         1.155222
 H         1.920082         0.054319        -0.687541
 H         1.320110         1.370057         0.335525
 H        -3.173130        -1.116274        -0.306419
 H        -2.819154         0.931274         1.583180
 H        -2.139604         1.818077        -0.745597
 H        -5.170942         0.863122        -0.596517
 H        -4.575038         2.248848        -1.570278
 H        -2.322257        -0.349530        -2.811249
 H        -2.525918         1.326959        -3.154525
