19
Iteration:  1424
 C         1.247124        -0.307421        -0.324668
 C        -0.066856         0.008299        -0.057800
 C        -1.232642         0.127136         0.142305
 C        -2.647034        -0.133992         0.233552
 O        -3.222894         0.076113         1.547863
 C        -3.336283         0.779295        -0.812099
 C        -4.539003         0.216383        -1.691594
 O        -3.959054         0.938876        -2.872224
 C        -2.715566         1.249269        -2.093498
 H         1.708725        -0.061384        -1.311060
 H         2.028435        -0.068515         0.533314
 H         1.305553        -1.418283        -0.425931
 H        -2.802414        -1.148451         0.052284
 H        -2.424470         0.348100         2.092599
 H        -3.822793         1.545651        -0.237730
 H        -4.523220        -0.903047        -1.788892
 H        -5.635093         0.512818        -1.475345
 H        -1.898908         0.607395        -2.375647
 H        -2.253326         2.254110        -2.148894
