19
Iteration:  3564
 C         1.583297        -0.332342         0.820001
 C         0.282908        -0.044830         0.149091
 C        -0.925009         0.146088        -0.145982
 C        -2.379143        -0.100236        -0.383015
 O        -3.114376        -0.347895         0.885063
 C        -3.020792         1.048861        -1.239973
 C        -4.560365         1.283158        -1.093663
 O        -4.773695         0.603490        -2.384255
 C        -3.348049         0.711042        -2.667147
 H         1.800855         0.221768         1.743625
 H         1.659273        -1.390853         0.996739
 H         2.487658        -0.215110         0.260886
 H        -2.510271        -1.005402        -0.786093
 H        -2.825232         0.353426         1.527819
 H        -2.559949         2.055637        -1.022294
 H        -5.237550         0.856004        -0.271499
 H        -4.936713         2.283041        -1.133013
 H        -2.942482        -0.286724        -2.955376
 H        -3.044359         1.642346        -3.184674
