19
Iteration:  2062
 C         1.399374        -0.183248        -0.253927
 C        -0.007925        -0.058087        -0.038712
 C        -1.209675        -0.071035         0.182684
 C        -2.727938        -0.031812         0.271826
 O        -3.102230         0.387382         1.587769
 C        -3.294409         0.933020        -0.937361
 C        -4.652045         0.668523        -1.578803
 O        -4.109763         0.694079        -2.889106
 C        -2.772451         0.458777        -2.279685
 H         1.940727        -0.345715         0.642933
 H         1.735515        -0.766204        -1.135256
 H         1.793389         0.847394        -0.502176
 H        -2.995603        -1.020339         0.139406
 H        -2.383627         0.832668         2.021415
 H        -3.218330         2.017310        -0.649896
 H        -5.274501        -0.308325        -1.213022
 H        -5.299040         1.569499        -1.510997
 H        -2.475937        -0.616985        -2.190199
 H        -1.963367         1.059260        -2.693377
