19
Iteration:  1032
 C         1.147739        -0.417801        -0.559783
 C        -0.308915        -0.460904        -0.388719
 C        -1.415167        -0.342289         0.010569
 C        -2.851982        -0.045863         0.453588
 O        -2.696998         0.950006         1.457039
 C        -3.951939         0.472291        -0.686352
 C        -3.784646        -0.224348        -2.113721
 O        -3.178888         0.911521        -2.699644
 C        -3.542238         1.775809        -1.475325
 H         1.557541         0.246362         0.123620
 H         1.528809        -1.447690        -0.095156
 H         1.571518        -0.567577        -1.541865
 H        -3.283338        -1.007741         0.857165
 H        -3.562431         1.331942         1.582900
 H        -4.923000         0.497278        -0.193424
 H        -3.195663        -1.110603        -1.890363
 H        -4.704720        -0.481435        -2.549302
 H        -2.756450         2.477684        -1.178676
 H        -4.397608         2.378459        -1.639740
