19
Iteration:  4808
 C         1.678292        -0.004937         0.492282
 C         0.197758        -0.085718         0.195386
 C        -0.996760        -0.272915        -0.087195
 C        -2.438862        -0.339415        -0.320175
 O        -3.226146        -0.687662         0.815131
 C        -3.040109         1.097626        -0.971229
 C        -4.637173         1.084290        -1.048159
 O        -4.646330         1.059081        -2.488702
 C        -3.142736         1.036361        -2.495891
 H         1.900819         0.477632         1.496391
 H         1.979793        -1.109347         0.554484
 H         2.225093         0.499638        -0.247708
 H        -2.781809        -1.046695        -1.237310
 H        -3.219970         0.089518         1.381135
 H        -2.590358         1.803960        -0.318935
 H        -5.034668         0.240249        -0.616622
 H        -5.279847         2.041415        -0.736524
 H        -2.831055         0.142769        -3.046372
 H        -2.576114         1.877381        -3.165612
