19
Iteration:  4129charge 0 multiplicity 1
 C         1.547341        -0.015091         0.430313
 C         0.169545        -0.128907         0.126240
 C        -1.018386        -0.337983        -0.187927
 C        -2.533269        -0.259589        -0.319509
 O        -3.243772        -0.440205         0.929405
 C        -3.035615         1.081703        -0.875609
 C        -4.599287         1.124127        -1.053261
 O        -4.541964         0.773508        -2.540984
 C        -3.066842         1.124541        -2.464593
 H         1.776874        -0.171795         1.550086
 H         2.206091        -0.818278        -0.000567
 H         1.992526         0.903550         0.067842
 H        -2.760180        -1.115934        -0.980244
 H        -2.774982        -0.842409         1.654149
 H        -2.574179         1.917549        -0.461578
 H        -5.216973         0.237757        -0.660407
 H        -5.006032         2.154482        -1.008647
 H        -2.473269         0.353572        -2.924251
 H        -2.884933         2.127112        -2.854270
