19
Iteration:   869
 C         1.285055        -0.248487        -0.477534
 C        -0.099000        -0.118067         0.042620
 C        -1.253744         0.071950         0.164104
 C        -2.678188        -0.021619         0.279832
 O        -3.060856         0.249696         1.692848
 C        -3.483097         0.735550        -0.773551
 C        -4.458706         0.083729        -1.787250
 O        -3.929445         0.873861        -2.870126
 C        -2.721360         1.242254        -2.098359
 H         1.959048         0.101727         0.358145
 H         1.600970        -1.246122        -0.660125
 H         1.521082         0.307968        -1.380528
 H        -2.843000        -1.031771         0.008750
 H        -4.049996         0.117210         1.736830
 H        -3.950379         1.652696        -0.425563
 H        -4.201332        -0.948495        -2.034339
 H        -5.584375         0.208918        -1.609781
 H        -1.827026         0.769213        -2.569470
 H        -2.569189         2.321371        -2.291784
