19
Iteration:  2563
 C         1.396368        -0.119417        -0.386566
 C        -0.036416        -0.184934        -0.114788
 C        -1.191229         0.047039         0.269901
 C        -2.636060        -0.131906         0.133423
 O        -3.456260         0.019369         1.280986
 C        -3.201704         0.953509        -0.723247
 C        -4.509356         0.487123        -1.397943
 O        -3.947953         0.614642        -2.764396
 C        -2.770743         1.246371        -2.167273
 H         1.730044        -1.128987        -0.877350
 H         1.662588         0.784664        -1.018280
 H         2.052084        -0.053954         0.524322
 H        -2.933073        -1.123755        -0.384856
 H        -3.330673        -0.663678         1.924717
 H        -3.292516         1.915474        -0.133476
 H        -4.711455        -0.532475        -1.169807
 H        -5.354176         1.164397        -1.171646
 H        -1.947756         0.758191        -2.504453
 H        -2.729294         2.320262        -2.339293
