19
Iteration:   417
 C         1.375292         0.155866        -0.216597
 C        -0.026277        -0.184895         0.113037
 C        -1.235120        -0.226345         0.250086
 C        -2.698210        -0.188831         0.145115
 O        -3.108942         0.389287         1.503497
 C        -3.097970         0.861977        -0.956365
 C        -4.571427         0.990259        -1.469753
 O        -4.251756         0.517490        -2.847542
 C        -2.818564         0.454315        -2.413630
 H         1.497669        -0.210255        -1.190282
 H         1.585068         1.293988        -0.281856
 H         2.204637        -0.101240         0.452707
 H        -3.169594        -1.157966        -0.020349
 H        -2.580202        -0.157650         2.158112
 H        -2.661661         1.743137        -0.619099
 H        -5.280412         0.343835        -0.916418
 H        -5.003932         2.019667        -1.437161
 H        -2.466342        -0.592473        -2.590202
 H        -2.202869         1.118100        -2.991990
