19
Iteration:  4874charge 0 multiplicity 1
 C         1.514147        -0.201602         0.598602
 C         0.074839        -0.053272         0.225002
 C        -1.042263        -0.137996        -0.222395
 C        -2.468438        -0.132658        -0.436141
 O        -3.025059        -0.717105         0.766584
 C        -3.080437         1.226320        -0.949541
 C        -4.587342         1.088569        -0.996541
 O        -4.597524         0.768084        -2.401352
 C        -3.147569         1.143912        -2.544594
 H         1.923748         0.731030         1.100597
 H         1.568701        -1.087756         1.332435
 H         2.099522        -0.459996        -0.254914
 H        -2.735245        -0.957467        -1.181941
 H        -2.309077        -0.568084         1.436299
 H        -2.638185         2.141563        -0.684174
 H        -5.059945         0.484378        -0.321100
 H        -5.217971         2.094418        -0.786320
 H        -2.458239         0.514182        -3.072711
 H        -3.088403         2.230026        -3.041243
