19
Iteration:  3248charge 0 multiplicity 1
 C         1.120679        -0.131510        -0.652764
 C        -0.162063         0.040620        -0.014625
 C        -1.364367        -0.041890         0.225202
 C        -2.776113        -0.183789         0.182891
 O        -3.349369        -0.088507         1.491898
 C        -3.307683         0.969692        -0.701899
 C        -4.400963         0.537878        -1.539536
 O        -3.756129         0.803188        -2.762599
 C        -2.499133         1.028935        -2.072523
 H         1.081045        -1.227546        -1.121456
 H         1.542945         0.536457        -1.399815
 H         1.915115        -0.215299         0.012030
 H        -3.227348        -1.270373        -0.249138
 H        -2.708472         0.363643         2.048244
 H        -3.247016         1.880123        -0.156278
 H        -4.579042        -0.541100        -1.436052
 H        -5.279883         1.171763        -1.480254
 H        -1.575105         0.275136        -2.240837
 H        -2.269020         2.114473        -2.277532
