19
Iteration:   556charge 0 multiplicity 1
 C         1.525088        -0.357836         0.756934
 C         0.231715         0.055146         0.344949
 C        -0.873810         0.364382        -0.017929
 C        -2.286162         0.136895        -0.337138
 O        -2.873430         0.151853         1.013221
 C        -3.063242         1.038521        -1.257568
 C        -4.667011         0.784069        -1.194830
 O        -4.853518         0.621394        -2.630234
 C        -3.427977         0.250879        -2.630846
 H         1.543786        -1.390936         0.510865
 H         2.303675         0.070558         0.125066
 H         1.775304        -0.145736         1.780646
 H        -2.367475        -0.915135        -0.753251
 H        -2.299131         0.514723         1.675117
 H        -2.888589         2.128113        -1.537183
 H        -4.846209        -0.137305        -0.625194
 H        -5.338066         1.549307        -0.722562
 H        -3.255657        -0.821933        -2.537397
 H        -2.979322         0.684906        -3.542096
