19
Iteration:    11charge 0 multiplicity 1
 C         1.503594        -0.131612         0.165878
 C         0.088674        -0.110734         0.028762
 C        -1.109634         0.002631        -0.034144
 C        -2.581079        -0.027932        -0.014683
 O        -3.140837         0.132053         1.372634
 C        -3.145281         1.024940        -0.996821
 C        -4.693296         0.793999        -1.263799
 O        -4.399637         0.508452        -2.728151
 C        -2.902662         0.678863        -2.525452
 H         1.601703        -0.203244         1.212930
 H         2.084602        -1.072296        -0.247467
 H         1.918046         0.821882        -0.160113
 H        -2.966444        -1.006743        -0.235386
 H        -2.660148         0.889468         1.791042
 H        -2.677184         1.984575        -0.707880
 H        -5.013932        -0.072934        -0.723748
 H        -5.476918         1.635490        -1.318472
 H        -2.273995        -0.171220        -2.478033
 H        -2.531307         1.337954        -3.289199
