19
Iteration:  2737
 C         1.585080        -0.168556         0.030994
 C         0.157144        -0.007422         0.219495
 C        -1.051308        -0.041539         0.113918
 C        -2.547489        -0.105177        -0.045200
 O        -3.225364        -0.373086         1.183041
 C        -3.206497         0.912651        -0.907964
 C        -4.672845         0.812898        -1.322218
 O        -4.414005         0.956252        -2.723610
 C        -2.968102         0.938773        -2.441451
 H         1.939343        -0.581421         1.020327
 H         1.810426        -0.940936        -0.723604
 H         2.114167         0.706164        -0.070941
 H        -2.598241        -1.158504        -0.502647
 H        -3.046877         0.358802         1.817003
 H        -2.993093         1.931920        -0.450372
 H        -5.173261        -0.171686        -1.226985
 H        -5.315931         1.615489        -0.874993
 H        -2.295150         0.102444        -2.869027
 H        -2.483793         1.862531        -2.767522
