19
Iteration:  3830charge 0 multiplicity 1
 C         1.330343        -0.043315        -0.468385
 C        -0.086910        -0.120804        -0.055095
 C        -1.264144        -0.289137         0.242441
 C        -2.700242        -0.261213         0.259481
 O        -3.407292         0.075799         1.507176
 C        -3.232892         0.790924        -0.737033
 C        -4.463766         0.462804        -1.622928
 O        -3.937442         1.106037        -2.797611
 C        -2.668358         1.096771        -2.195456
 H         1.425295        -0.128305        -1.577004
 H         1.703409         0.919555        -0.088073
 H         1.889317        -0.988055        -0.263180
 H        -2.975026        -1.319317        -0.050148
 H        -2.988422        -0.184816         2.324518
 H        -3.293995         1.752862        -0.262336
 H        -4.467189        -0.529103        -1.954202
 H        -5.383902         0.860547        -1.235378
 H        -2.022604         0.214896        -2.469808
 H        -2.054761         2.031592        -2.367885
