19
Iteration:  3986
 C         1.436288        -0.281686        -0.190537
 C         0.010645        -0.257548         0.000726
 C        -1.190020        -0.013622         0.062075
 C        -2.693133        -0.112608         0.029999
 O        -3.160646        -0.096144         1.388470
 C        -3.401393         0.963373        -0.741173
 C        -4.675219         0.498348        -1.571848
 O        -3.956996         0.782623        -2.798689
 C        -2.808911         1.430853        -2.086168
 H         1.908107        -1.294174        -0.459532
 H         1.807846         0.258651        -1.111923
 H         1.981200         0.385957         0.583354
 H        -2.937285        -1.051612        -0.315352
 H        -2.567520        -0.612242         1.979147
 H        -3.802558         1.740121        -0.194138
 H        -5.032132        -0.559950        -1.464644
 H        -5.557929         1.227265        -1.445614
 H        -1.959805         0.863718        -2.365635
 H        -2.803036         2.491733        -2.201659
