19
Iteration:  2401
 C         1.393299         0.306604         0.336999
 C         0.007738        -0.142319         0.231664
 C        -1.113992        -0.473770        -0.149938
 C        -2.596945        -0.382736        -0.107227
 O        -2.924351         0.035812         1.280216
 C        -3.084946         0.737352        -1.024951
 C        -4.630350         1.038580        -1.267315
 O        -4.419140         1.124172        -2.715720
 C        -3.065333         0.487300        -2.569528
 H         1.726728         0.676228        -0.658546
 H         1.576491         1.072916         1.031810
 H         2.005768        -0.617773         0.504619
 H        -3.052914        -1.388912        -0.434243
 H        -2.242223        -0.305871         1.923194
 H        -2.474111         1.621097        -0.800827
 H        -5.231257         0.130929        -0.911462
 H        -4.926003         1.977117        -0.739715
 H        -3.079997        -0.550666        -2.690595
 H        -2.435769         1.136397        -3.182921
