19
Iteration:   378charge 0 multiplicity 1
 C         1.314475         0.077489        -0.450679
 C        -0.111155         0.118252        -0.219544
 C        -1.261091        -0.054498         0.206315
 C        -2.753332        -0.217241         0.215519
 O        -3.416599         0.308744         1.504361
 C        -3.051053         0.886312        -0.824686
 C        -4.429309         1.016756        -1.465609
 O        -4.018716         0.495708        -2.757157
 C        -2.654183         0.313032        -2.141064
 H         1.518953        -0.202961        -1.584941
 H         1.704096         1.039059        -0.302081
 H         1.727326        -0.793385         0.090919
 H        -3.118490        -1.258124        -0.006884
 H        -3.470759        -0.421549         2.098393
 H        -2.578666         1.860015        -0.327500
 H        -5.164558         0.311443        -1.025320
 H        -4.881504         2.010218        -1.517364
 H        -2.282512        -0.674336        -1.896823
 H        -1.856023         0.743252        -2.844689
