19
Iteration:  1972
 C         1.136293        -0.098211        -0.722754
 C        -0.079029        -0.010983         0.100222
 C        -1.218935         0.042379         0.477530
 C        -2.714462        -0.079474         0.316230
 O        -3.593235         0.279050         1.386284
 C        -2.913227         0.909919        -0.943431
 C        -4.345192         0.876571        -1.361516
 O        -3.971414         0.489424        -2.685405
 C        -2.585559         0.429693        -2.323285
 H         1.809531        -1.066357        -0.600145
 H         0.628826        -0.096527        -1.723487
 H         1.748635         0.814330        -0.713061
 H        -3.093615        -1.024225         0.090519
 H        -3.235032         0.995008         1.908643
 H        -2.511868         1.946900        -0.783817
 H        -5.093650         0.179299        -0.718554
 H        -4.972487         1.779924        -1.290986
 H        -2.232912        -0.641518        -2.355957
 H        -2.084133         1.134483        -3.048368
