19
Iteration:  3489
 C         1.613104        -0.161922         0.645720
 C         0.219737        -0.073953         0.210571
 C        -0.984011        -0.157370        -0.060557
 C        -2.406544        -0.178871        -0.343758
 O        -3.190257        -0.065165         0.914601
 C        -2.999401         0.945020        -1.170517
 C        -4.561725         1.103598        -1.071982
 O        -4.726822         0.784715        -2.482603
 C        -3.269052         0.697938        -2.657809
 H         1.647789        -0.151699         1.849498
 H         2.220567        -0.985733         0.261139
 H         2.290030         0.576406         0.332288
 H        -2.712435        -1.299912        -0.706162
 H        -2.583856        -0.290848         1.624871
 H        -2.466364         1.830066        -0.865516
 H        -5.188772         0.490731        -0.337690
 H        -4.915630         2.158228        -0.918327
 H        -2.830069        -0.253513        -2.979188
 H        -2.862445         1.478408        -3.331416
