19
Iteration:  3571
 C         1.598968        -0.342373         0.840373
 C         0.295483         0.007650         0.090295
 C        -0.913464         0.056170        -0.149593
 C        -2.398415        -0.096780        -0.371811
 O        -3.118203        -0.347391         0.894038
 C        -3.059406         1.122186        -1.197005
 C        -4.589546         1.282805        -1.097438
 O        -4.738836         0.602945        -2.380965
 C        -3.351008         0.703452        -2.671976
 H         1.889100         0.177791         1.743824
 H         1.377051        -1.384224         1.203907
 H         2.613660        -0.061761         0.245107
 H        -2.581745        -1.104555        -0.998740
 H        -2.844813         0.294146         1.608165
 H        -2.462224         2.038500        -0.911194
 H        -4.994200         0.774749        -0.252868
 H        -4.971168         2.337819        -1.296233
 H        -2.904068        -0.319512        -2.971921
 H        -3.124324         1.507186        -3.430734
