19
Iteration:  2423charge 0 multiplicity 1
 C         1.380162         0.212812         0.268116
 C        -0.002114        -0.099086         0.054678
 C        -1.185557        -0.166029        -0.212316
 C        -2.652513        -0.308785         0.017300
 O        -2.938355        -0.097718         1.372160
 C        -3.159628         0.732543        -0.955929
 C        -4.652333         0.988991        -1.321246
 O        -4.231855         1.153714        -2.751721
 C        -3.027118         0.399392        -2.469824
 H         1.784056         0.447931        -0.726436
 H         1.392121         1.092485         0.852796
 H         2.003709        -0.635275         0.691151
 H        -2.912041        -1.312749        -0.411210
 H        -2.249714        -0.495552         1.892657
 H        -2.649261         1.687267        -0.739680
 H        -5.298032         0.098676        -0.991735
 H        -5.000288         1.989766        -0.949642
 H        -3.273900        -0.637055        -2.688036
 H        -2.195126         0.916527        -2.955215
