19
Iteration:  1248charge 0 multiplicity 1
 C         1.128907        -0.582113        -0.509958
 C        -0.296363        -0.458465        -0.405254
 C        -1.497076        -0.291020        -0.029596
 C        -2.861741        -0.010274         0.385873
 O        -2.946360         0.992766         1.416451
 C        -3.747865         0.410008        -0.707534
 C        -3.649554        -0.285031        -2.077521
 O        -3.364505         1.040601        -2.677124
 C        -3.384724         1.729921        -1.369491
 H         1.467981         0.440987        -0.659679
 H         1.652038        -0.873828         0.406936
 H         1.334343        -1.270349        -1.340763
 H        -3.312609        -0.911033         0.926548
 H        -2.356364         1.790445         1.297773
 H        -4.719532         0.440236        -0.249298
 H        -2.921357        -1.117898        -2.167438
 H        -4.614408        -0.592877        -2.413520
 H        -2.365563         2.062902        -1.136323
 H        -4.176601         2.526398        -1.453542
