19
Iteration:  4944charge 0 multiplicity 1
 C         1.510992        -0.201649         0.588587
 C         0.209410        -0.229176        -0.032061
 C        -1.004727        -0.184872        -0.182461
 C        -2.498282        -0.078440        -0.341806
 O        -3.109527        -0.473214         0.949967
 C        -3.105633         1.121728        -0.974512
 C        -4.632849         0.848981        -1.069679
 O        -4.517497         0.777799        -2.518365
 C        -3.158016         1.369235        -2.474937
 H         2.015540         0.730233         0.437312
 H         1.423973        -0.255492         1.636095
 H         2.282440        -1.051297         0.408652
 H        -2.845482        -0.892397        -1.150073
 H        -2.512371        -1.121056         1.407147
 H        -3.006044         2.098067        -0.333238
 H        -5.002800        -0.104365        -0.690437
 H        -5.339925         1.569612        -0.554266
 H        -2.283447         0.995241        -3.111906
 H        -3.267093         2.553633        -2.654250
