19
Iteration:  1719
 C         1.461430        -0.481734         0.785219
 C         0.236358         0.109424         0.298953
 C        -0.819286         0.440935        -0.188531
 C        -2.326138         0.091154        -0.239053
 O        -2.872327        -0.009665         1.091027
 C        -3.117974         0.926119        -1.236763
 C        -4.656487         0.969489        -1.226856
 O        -4.841490         0.647562        -2.632488
 C        -3.356632         0.389579        -2.654279
 H         1.819221        -1.180993        -0.122235
 H         2.352694         0.044944         1.005816
 H         1.085349        -0.979275         1.699219
 H        -2.423231        -0.856029        -0.657798
 H        -2.213903         0.438644         1.600159
 H        -2.573685         1.883211        -1.194987
 H        -5.194914         0.251519        -0.611235
 H        -5.144283         1.848638        -0.936130
 H        -3.254127        -0.776945        -2.725876
 H        -2.806732         0.950914        -3.394086
