19
Iteration:  1885
 C         1.276502         0.020722        -0.159366
 C        -0.181198        -0.177557        -0.190493
 C        -1.333443        -0.233576         0.027435
 C        -2.809870        -0.124121         0.234759
 O        -3.000960         0.509056         1.482600
 C        -3.182698         0.935468        -0.879801
 C        -4.583767         0.918239        -1.482135
 O        -4.019800         0.404634        -2.746898
 C        -2.682839         0.544116        -2.259144
 H         1.688139        -1.016826        -0.333929
 H         1.816736         0.477104        -1.007662
 H         1.453846         0.488490         0.810559
 H        -3.420269        -1.069968        -0.128260
 H        -2.523555         0.059648         2.168241
 H        -2.771570         1.932433        -0.562388
 H        -5.389947         0.238162        -1.060484
 H        -5.116057         1.880993        -1.597141
 H        -2.039579        -0.346888        -2.264495
 H        -2.106573         1.296694        -2.812634
