19
Iteration:  1196
 C         0.840790        -0.751400        -1.030010
 C        -0.295945        -0.424045        -0.120979
 C        -1.393419        -0.170700         0.204386
 C        -2.848567         0.056225         0.536073
 O        -3.131851         1.040225         1.632630
 C        -3.660817         0.364345        -0.795679
 C        -3.129944        -0.239649        -2.119382
 O        -3.321465         1.039671        -2.689905
 C        -3.594023         1.702742        -1.478515
 H         1.479372         0.037637        -1.249953
 H         1.398061        -1.523914        -0.345309
 H         0.363149        -1.378847        -1.756559
 H        -3.200608        -0.858632         0.997438
 H        -2.815702         1.957297         1.452616
 H        -4.647939         0.023607        -0.536587
 H        -1.980431        -0.538565        -2.115771
 H        -3.821662        -1.014827        -2.535162
 H        -2.769277         2.412562        -1.192257
 H        -4.454760         2.348260        -1.656468
