19
Iteration:   435
 C         1.306036         0.147152        -0.051413
 C         0.019007        -0.281263         0.217693
 C        -1.189383        -0.302629         0.114093
 C        -2.639993        -0.080616         0.138958
 O        -3.025346         0.412023         1.345410
 C        -3.086744         0.898580        -0.987490
 C        -4.596566         0.857510        -1.378813
 O        -4.315947         0.574713        -2.756248
 C        -2.898553         0.479783        -2.544890
 H         1.829605        -0.255459        -0.967120
 H         1.354807         1.295701        -0.109856
 H         1.942350        -0.060650         0.836388
 H        -3.083925        -1.095460        -0.069553
 H        -2.276201         0.329720         2.001135
 H        -2.849757         1.955671        -0.686069
 H        -5.227010         0.066455        -0.951575
 H        -5.086133         1.865293        -1.243761
 H        -2.407864        -0.525407        -2.537745
 H        -2.415673         1.167947        -3.318351
