19
Iteration:   621
 C         1.628576        -0.057719         0.762920
 C         0.214848         0.035849         0.284328
 C        -0.977613        -0.097459        -0.072831
 C        -2.389749        -0.087267        -0.333150
 O        -3.012936         0.207815         0.976299
 C        -3.032336         0.982851        -1.315087
 C        -4.534733         1.064218        -1.161367
 O        -4.820070         0.415653        -2.376769
 C        -3.347249         0.470634        -2.768313
 H         1.796507        -1.048128         1.240926
 H         2.329173        -0.017496        -0.065754
 H         1.894461         0.693714         1.498740
 H        -2.743501        -1.047251        -0.697784
 H        -2.856054        -0.621888         1.515180
 H        -2.401562         1.922014        -1.175427
 H        -5.082020         0.615093        -0.330505
 H        -4.871927         2.138318        -1.179483
 H        -2.953345        -0.461943        -3.147971
 H        -3.247306         1.276300        -3.538731
