19
Iteration:  4742
 C         1.521733         0.205351         0.310061
 C         0.125746        -0.104012         0.064618
 C        -1.035420        -0.432794        -0.087147
 C        -2.555515        -0.413047        -0.210574
 O        -3.197725        -0.445985         1.051470
 C        -3.116019         0.775314        -0.888609
 C        -4.714286         0.861247        -1.212545
 O        -4.382426         1.383182        -2.523658
 C        -3.022274         1.023415        -2.439561
 H         1.904741         0.047321         1.375073
 H         2.140881        -0.608573        -0.213032
 H         1.874937         1.150488         0.084716
 H        -2.901476        -1.445658        -0.750744
 H        -2.817036        -1.213832         1.551966
 H        -2.687252         1.721955        -0.508306
 H        -5.151184        -0.060256        -1.219878
 H        -5.273820         1.673879        -0.658062
 H        -2.859572         0.203803        -3.183274
 H        -2.116127         1.714072        -2.886026
