19
Iteration:  1822
 C         1.518716        -0.186252         0.227477
 C         0.092396        -0.394277         0.233555
 C        -1.090504        -0.083280         0.123923
 C        -2.494079        -0.035118         0.009313
 O        -2.988948         0.618110         1.233311
 C        -3.190236         0.889075        -1.090430
 C        -4.678748         0.608141        -1.325751
 O        -4.515596         0.579946        -2.745031
 C        -3.045009         0.751178        -2.602507
 H         1.973849        -1.084959        -0.093596
 H         1.973135         0.735013        -0.361960
 H         1.927159        -0.186884         1.262582
 H        -2.832836        -1.009485        -0.045785
 H        -2.832508         0.106414         2.042565
 H        -2.920802         1.951415        -0.858132
 H        -4.979721        -0.311605        -0.897591
 H        -5.298729         1.546873        -1.101172
 H        -2.359328        -0.013050        -3.054013
 H        -2.646789         1.670123        -3.141721
