19
Iteration:   367
 C         1.243562         0.044920        -0.565777
 C        -0.182134         0.123995        -0.243616
 C        -1.286525        -0.006229         0.272120
 C        -2.777085        -0.076412         0.288175
 O        -3.425443         0.241668         1.406909
 C        -3.057549         0.911242        -0.806256
 C        -4.435078         0.968482        -1.419386
 O        -3.921012         0.498932        -2.693535
 C        -2.581501         0.262857        -2.125413
 H         1.617716        -0.104257        -1.660468
 H         1.773339         0.839186        -0.134480
 H         1.637330        -0.723466         0.122996
 H        -3.129285        -1.079601        -0.092908
 H        -3.509094        -0.521322         2.006325
 H        -2.428229         1.883785        -0.715392
 H        -5.109429         0.246316        -0.902321
 H        -4.970134         1.904980        -1.561866
 H        -2.356301        -0.797679        -2.174446
 H        -1.781608         0.921634        -2.615187
