19
Iteration:  4056charge 0 multiplicity 1
 C         1.566411        -0.325282         0.131237
 C         0.149021        -0.044805        -0.008629
 C        -1.112777         0.029502         0.002192
 C        -2.618943        -0.084826        -0.146303
 O        -3.232490        -0.326127         1.103590
 C        -3.291632         1.108898        -0.747946
 C        -4.692039         0.704351        -1.318848
 O        -4.241615         0.726364        -2.713437
 C        -2.913898         1.275692        -2.229130
 H         1.807337        -1.300577         0.678640
 H         2.104940        -0.705472        -0.799175
 H         2.184600         0.484550         0.384073
 H        -2.691790        -0.936764        -0.720208
 H        -2.820437        -0.983073         1.709253
 H        -3.225652         2.042601        -0.098406
 H        -5.073221        -0.215353        -0.925977
 H        -5.477506         1.512168        -1.166184
 H        -2.094335         0.532235        -2.460838
 H        -2.879172         2.362364        -2.567337
