19
Iteration:  2532charge 0 multiplicity 1
 C         1.395951         0.004029        -0.447112
 C         0.105749        -0.216553         0.182740
 C        -1.113732        -0.214932         0.433999
 C        -2.610719        -0.081572         0.127302
 O        -3.501191         0.012913         1.261616
 C        -3.140672         0.971388        -0.850053
 C        -4.567332         0.509780        -1.398925
 O        -4.089304         0.766301        -2.741896
 C        -2.810217         1.134328        -2.348741
 H         1.382097        -0.830116        -1.258307
 H         1.728799         0.936218        -0.774267
 H         2.381937        -0.095664         0.214751
 H        -2.726978        -1.073498        -0.527539
 H        -3.221154        -0.585031         2.025744
 H        -3.306352         1.940833        -0.344933
 H        -4.689744        -0.533712        -1.209684
 H        -5.414616         1.072936        -0.918252
 H        -2.048062         0.410959        -2.877283
 H        -2.463783         2.172099        -2.551291
