19
Iteration:  2680
 C         1.518961        -0.140994         0.029693
 C         0.054673        -0.198153        -0.113278
 C        -1.166028        -0.362788        -0.087213
 C        -2.684233        -0.136601        -0.047668
 O        -3.211206        -0.070464         1.337812
 C        -3.327706         1.123188        -0.752797
 C        -4.625461         0.577407        -1.342549
 O        -4.070891         0.631031        -2.741113
 C        -2.893983         1.379513        -2.266521
 H         1.924859        -0.842646         0.752713
 H         2.115905        -0.115311        -0.936626
 H         1.683987         0.929660         0.319251
 H        -3.124124        -1.134566        -0.500483
 H        -2.810254         0.746696         1.723606
 H        -3.372090         1.995502        -0.066822
 H        -4.739897        -0.539698        -1.223772
 H        -5.575997         1.109876        -1.140866
 H        -1.938398         0.727678        -2.470616
 H        -2.875596         2.398593        -2.568287
