19
Iteration:    57charge 0 multiplicity 1
 C         1.511759        -0.446620         0.406062
 C         0.165334         0.001154         0.056448
 C        -1.000160         0.241875        -0.163858
 C        -2.493913        -0.037905        -0.011895
 O        -2.848094         0.334987         1.406737
 C        -3.416789         0.918911        -0.975679
 C        -4.819247         0.361080        -1.432922
 O        -4.455254         0.721376        -2.826984
 C        -3.058352         0.848736        -2.457323
 H         1.862439        -0.321889         1.475259
 H         1.540041        -1.489325         0.264291
 H         2.274432         0.009729        -0.267139
 H        -2.747521        -1.090702        -0.127368
 H        -2.291468         1.178518         1.460650
 H        -3.555962         1.893251        -0.591114
 H        -4.857317        -0.771848        -1.413967
 H        -5.721684         0.750881        -1.124494
 H        -2.651344        -0.120508        -2.663627
 H        -2.373799         1.590089        -2.869310
