19
Iteration:   650
 C         1.397466         0.160467         0.612617
 C         0.075857        -0.223057         0.251343
 C        -1.074324        -0.230038        -0.228887
 C        -2.482018        -0.117320        -0.257062
 O        -2.994532         0.116345         1.059446
 C        -2.966468         1.038614        -1.234238
 C        -4.483021         1.186701        -1.197298
 O        -4.687318         0.358152        -2.329674
 C        -3.130492         0.499847        -2.697880
 H         2.009420        -0.638577         1.266027
 H         2.031012         0.250633        -0.270760
 H         1.243710         1.218314         0.932659
 H        -2.887940        -1.128345        -0.682269
 H        -2.281459         0.072491         1.730605
 H        -2.326881         1.911913        -0.981209
 H        -5.160609         1.040211        -0.343476
 H        -4.708055         2.233417        -1.451412
 H        -2.649198        -0.475439        -2.924174
 H        -3.126844         1.279855        -3.461713
