19
Iteration:  3595
 C         1.449713        -0.254749         0.753582
 C         0.180736         0.000927         0.143315
 C        -0.991731        -0.152979        -0.199001
 C        -2.382510        -0.029821        -0.374780
 O        -3.050456        -0.311441         0.881879
 C        -2.974345         1.164956        -1.188248
 C        -4.555220         1.228767        -1.074811
 O        -4.709408         0.564954        -2.375744
 C        -3.267023         0.737256        -2.594920
 H         1.802279         0.416195         1.446771
 H         1.331538        -1.164844         1.337178
 H         2.362766        -0.165589         0.004720
 H        -2.732311        -0.895789        -0.981438
 H        -2.657847         0.140272         1.630513
 H        -2.532172         2.204655        -0.960912
 H        -5.071969         0.634882        -0.289780
 H        -4.900980         2.276104        -1.203608
 H        -2.748665        -0.265035        -2.932958
 H        -2.932296         1.573473        -3.266674
