19
Iteration:  1198
 C         0.862788        -0.752893        -1.023162
 C        -0.308276        -0.428444        -0.136113
 C        -1.400969        -0.180535         0.217675
 C        -2.839675         0.068675         0.541834
 O        -3.117677         1.043375         1.639719
 C        -3.665799         0.355982        -0.796895
 C        -3.157399        -0.242061        -2.129528
 O        -3.316467         1.043480        -2.702815
 C        -3.592153         1.708700        -1.471844
 H         1.549453         0.131127        -1.164081
 H         1.461915        -1.476289        -0.319123
 H         0.410343        -1.419683        -1.743391
 H        -3.222502        -0.843721         0.952833
 H        -2.875274         1.943848         1.453983
 H        -4.712376        -0.023751        -0.587789
 H        -2.083550        -0.533163        -2.158132
 H        -3.864486        -1.014735        -2.520410
 H        -2.721803         2.372101        -1.199726
 H        -4.462787         2.314819        -1.632154
