19
Iteration:  3000charge 0 multiplicity 1
 C         1.729858        -0.134103         0.495845
 C         0.311514        -0.083169         0.192556
 C        -0.922333        -0.053109         0.088939
 C        -2.434009        -0.180403        -0.172496
 O        -3.282724        -0.351366         0.964678
 C        -3.058636         0.909667        -1.155112
 C        -4.614926         1.112888        -1.132938
 O        -4.744251         0.880926        -2.574001
 C        -3.279096         0.776805        -2.638752
 H         2.255493         0.859165         0.271137
 H         1.815709        -0.242304         1.595529
 H         2.264097        -0.935460         0.006133
 H        -2.419444        -1.104028        -0.690603
 H        -2.837236         0.045322         1.766205
 H        -2.467793         1.879444        -0.932981
 H        -5.133857         0.344013        -0.566092
 H        -4.967956         2.128339        -0.989220
 H        -2.797128        -0.103918        -3.055960
 H        -2.801735         1.622302        -3.324619
