19
Iteration:  3800
 C         1.417626        -0.115063        -0.416605
 C        -0.039999        -0.056990        -0.008177
 C        -1.247994        -0.139914         0.284011
 C        -2.687788        -0.190576         0.168128
 O        -3.418153        -0.035945         1.416074
 C        -3.260575         0.813055        -0.801961
 C        -4.518360         0.552386        -1.564552
 O        -3.986137         1.111480        -2.710743
 C        -2.658484         0.930138        -2.213979
 H         1.357780         0.235732        -1.523189
 H         1.997091         0.561164         0.240232
 H         1.735378        -1.109691        -0.258557
 H        -2.895412        -1.215516        -0.345838
 H        -2.713998        -0.066319         2.124252
 H        -3.211535         1.799700        -0.369926
 H        -4.690346        -0.591191        -1.870436
 H        -5.488362         0.963695        -1.104688
 H        -2.292403        -0.063910        -2.615419
 H        -2.097883         1.932636        -2.436807
