19
Iteration:  1434charge 0 multiplicity 1
 C         1.315945        -0.304273        -0.377421
 C        -0.102327        -0.037579        -0.024404
 C        -1.238808         0.166293         0.153185
 C        -2.635316        -0.101333         0.226895
 O        -3.304130         0.049869         1.510204
 C        -3.336598         0.718407        -0.794851
 C        -4.492432         0.248692        -1.632332
 O        -3.965540         0.979958        -2.794521
 C        -2.683365         1.156245        -2.186855
 H         1.643313         0.227177        -1.333902
 H         1.919788         0.172676         0.462063
 H         1.500277        -1.384961        -0.299530
 H        -2.770839        -1.134807        -0.064708
 H        -2.727968         0.394893         2.227813
 H        -3.604240         1.652561        -0.329925
 H        -4.537997        -0.861989        -1.809835
 H        -5.415944         0.813921        -1.310657
 H        -1.908537         0.460553        -2.515263
 H        -2.421362         2.195325        -2.365896
