19
Iteration:  3232charge 0 multiplicity 1
 C         1.204452        -0.135523        -0.607456
 C        -0.151966        -0.084060        -0.125967
 C        -1.313111        -0.089873         0.217035
 C        -2.736395        -0.147357         0.207024
 O        -3.350135        -0.030749         1.489729
 C        -3.271593         0.920617        -0.679700
 C        -4.587770         0.567081        -1.591422
 O        -3.702848         0.721022        -2.808706
 C        -2.566761         1.143792        -1.973412
 H         1.296921        -1.024102        -1.262670
 H         1.287885         0.885726        -1.033155
 H         1.987342        -0.152443         0.260148
 H        -2.997604        -1.082029        -0.167011
 H        -2.647467         0.274820         2.044355
 H        -3.475573         1.862224        -0.093734
 H        -4.907780        -0.495579        -1.479902
 H        -5.448923         1.269640        -1.610456
 H        -1.813723         0.411556        -2.142602
 H        -2.062225         2.064235        -2.280394
