19
Iteration:  4161
 C         1.392508         0.061535         0.544003
 C         0.143917        -0.166873         0.014441
 C        -1.095606        -0.211310        -0.186111
 C        -2.499291        -0.390424        -0.370369
 O        -3.174487        -0.472997         0.867749
 C        -2.971186         0.992848        -0.959208
 C        -4.482527         1.202430        -0.980847
 O        -4.540179         0.896845        -2.373722
 C        -3.097422         0.990533        -2.569296
 H         1.241692         0.499102         1.558439
 H         1.965047        -0.854706         0.371005
 H         1.938179         0.889307         0.101669
 H        -2.786517        -1.201691        -0.960594
 H        -2.688971        -1.033564         1.531374
 H        -2.206154         1.706219        -0.676565
 H        -5.237447         0.406573        -0.433396
 H        -4.875180         2.177420        -0.569256
 H        -2.719660         0.175251        -3.190437
 H        -2.603176         1.855948        -3.083640
