19
Iteration:   851
 C         1.309396        -0.294006        -0.466133
 C        -0.073506         0.139169        -0.097050
 C        -1.202178         0.085573         0.326600
 C        -2.669216        -0.159282         0.300479
 O        -3.196689         0.256659         1.604101
 C        -3.342627         0.746628        -0.826940
 C        -4.468828         0.117206        -1.735575
 O        -3.972175         0.946232        -2.845252
 C        -2.736141         1.115968        -2.139897
 H         2.104957        -0.060037         0.352841
 H         1.207667        -1.369240        -0.678986
 H         1.518466         0.213751        -1.426515
 H        -2.902772        -1.294814         0.163110
 H        -4.138045        -0.078893         1.696753
 H        -3.682390         1.615230        -0.176727
 H        -4.303844        -0.991634        -1.910821
 H        -5.483429         0.381282        -1.478918
 H        -1.932255         0.411035        -2.391741
 H        -2.190463         2.095896        -2.141471
