19
Iteration:  2635charge 0 multiplicity 1
 C         1.323408        -0.165989        -0.115137
 C        -0.123918        -0.165074        -0.077930
 C        -1.313214         0.079469        -0.120191
 C        -2.760781        -0.180034         0.051225
 O        -2.927903        -0.138198         1.477291
 C        -3.454383         1.028033        -0.702329
 C        -4.664297         0.739527        -1.617836
 O        -3.843521         0.461191        -2.754747
 C        -2.825763         1.288957        -2.123775
 H         1.649043        -1.142608         0.184650
 H         1.724833         0.053064        -1.134576
 H         1.881380         0.524677         0.631578
 H        -2.889612        -1.313096        -0.298837
 H        -2.028260        -0.280489         1.802308
 H        -3.546405         1.833870         0.020327
 H        -5.429233        -0.063970        -1.311100
 H        -5.185572         1.689904        -1.876650
 H        -1.722173         0.838013        -2.271169
 H        -2.987990         2.339874        -2.358903
