19
Iteration:  4813
 C         1.685355        -0.055620         0.517630
 C         0.207098        -0.059259         0.169119
 C        -0.971958        -0.228700        -0.092651
 C        -2.446726        -0.373227        -0.353271
 O        -3.239814        -0.693416         0.803710
 C        -3.065350         1.087748        -0.943048
 C        -4.643428         1.131041        -1.021009
 O        -4.615678         1.037023        -2.484860
 C        -3.201962         1.041192        -2.515473
 H         1.880450         0.476705         1.420178
 H         2.055664        -1.026085         0.723775
 H         2.374436         0.506150        -0.234463
 H        -2.694175        -1.018616        -1.120624
 H        -3.239449         0.108165         1.376601
 H        -2.524190         1.978553        -0.378486
 H        -5.130526         0.102486        -0.681701
 H        -5.089337         2.040205        -0.909813
 H        -2.635474         0.134971        -2.941646
 H        -2.791353         1.823206        -3.026247
