19
Iteration:  2677
 C         1.520484        -0.133736         0.015989
 C         0.039234        -0.211682        -0.098399
 C        -1.172259        -0.354190        -0.105878
 C        -2.686832        -0.154046        -0.040297
 O        -3.193994        -0.062840         1.340773
 C        -3.346386         1.128826        -0.743354
 C        -4.631775         0.578796        -1.371853
 O        -4.050683         0.627224        -2.719179
 C        -2.884591         1.375152        -2.257509
 H         1.831280        -0.931634         0.676393
 H         2.147218        -0.088090        -0.887480
 H         1.723567         1.019520         0.309106
 H        -3.190790        -1.054290        -0.487473
 H        -2.783376         0.668495         1.788395
 H        -3.425841         1.932610        -0.044297
 H        -4.687647        -0.502000        -1.181601
 H        -5.563273         1.138483        -1.260387
 H        -1.988021         0.813332        -2.437263
 H        -2.911772         2.367138        -2.732622
