19
Iteration:  4898
 C         1.528493        -0.198836         0.660493
 C         0.113783        -0.132264         0.223235
 C        -0.977881        -0.150971        -0.362238
 C        -2.403191        -0.139173        -0.545679
 O        -3.108764        -0.540873         0.769150
 C        -3.078420         1.139777        -0.891233
 C        -4.659706         1.038838        -0.994514
 O        -4.551914         0.676646        -2.408350
 C        -3.198070         1.260939        -2.443425
 H         2.029874         0.754022         0.820616
 H         1.647408        -0.873711         1.513933
 H         2.043610        -0.756903        -0.206975
 H        -2.742900        -1.051611        -1.199882
 H        -2.372298        -0.582376         1.425880
 H        -2.756839         2.093080        -0.367085
 H        -5.201571         0.443829        -0.385882
 H        -5.314155         2.070417        -0.932308
 H        -2.449886         0.648535        -2.988955
 H        -2.933265         2.400954        -2.751361
