19
Iteration:   593
 C         1.681020        -0.275296         0.852357
 C         0.328324         0.114184         0.226866
 C        -0.873887         0.285490        -0.073969
 C        -2.240015        -0.040770        -0.303385
 O        -3.126452         0.240418         0.901280
 C        -3.081056         0.890214        -1.298273
 C        -4.581172         0.965627        -1.123106
 O        -4.862738         0.494594        -2.455193
 C        -3.466772         0.387673        -2.715866
 H         1.571155        -1.346883         1.056352
 H         2.567217        -0.197150         0.089918
 H         1.968147         0.064986         1.883082
 H        -2.410168        -1.128387        -0.563142
 H        -2.944500        -0.521730         1.490197
 H        -2.485663         1.738157        -1.286098
 H        -5.091180         0.229713        -0.474497
 H        -4.953215         1.990259        -1.006597
 H        -3.076255        -0.535519        -3.230444
 H        -3.241140         1.193851        -3.407287
