19
Iteration:   886
 C         1.336029        -0.187170        -0.372886
 C        -0.075914        -0.329444        -0.000593
 C        -1.246364         0.028568         0.051650
 C        -2.774724        -0.032015         0.267456
 O        -2.976857         0.287785         1.713842
 C        -3.532525         0.866941        -0.796593
 C        -4.388627         0.032147        -1.775266
 O        -3.879638         0.821167        -2.967173
 C        -2.869186         1.373596        -2.024365
 H         2.066462         0.301693         0.235481
 H         1.853786        -1.230261        -0.692078
 H         1.261615         0.368199        -1.346935
 H        -3.156386        -1.147833         0.215454
 H        -3.973986         0.275672         1.891287
 H        -4.146923         1.598402        -0.227942
 H        -4.144967        -1.062926        -1.740071
 H        -5.443831         0.125723        -1.803206
 H        -1.999187         0.711152        -2.052703
 H        -2.689409         2.457601        -2.134475
