19
Iteration:  2052charge 0 multiplicity 1
 C         1.420235        -0.132305        -0.363536
 C        -0.028737        -0.093216         0.059883
 C        -1.217476        -0.061148         0.158522
 C        -2.671398         0.001032         0.264580
 O        -3.243947         0.391763         1.580294
 C        -3.225245         0.867834        -0.860065
 C        -4.654436         0.696305        -1.500718
 O        -4.060393         0.665697        -2.881757
 C        -2.747834         0.481679        -2.319834
 H         2.015606        -0.573444         0.396391
 H         1.557691        -0.874327        -1.237904
 H         1.835750         0.883499        -0.632393
 H        -3.121517        -0.902292         0.134607
 H        -2.684431         1.052848         1.992112
 H        -2.994203         1.940043        -0.663581
 H        -5.073606        -0.378535        -1.232871
 H        -5.381078         1.537289        -1.402756
 H        -2.493398        -0.582748        -2.424389
 H        -2.006094         1.022350        -2.886023
