19
Iteration:  4009charge 0 multiplicity 1
 C         1.417284        -0.339058        -0.102483
 C        -0.002158        -0.141231         0.008892
 C        -1.211620         0.136860        -0.006710
 C        -2.630536        -0.156630        -0.030224
 O        -3.169650        -0.164385         1.341998
 C        -3.287263         0.979590        -0.704195
 C        -4.609698         0.602082        -1.481317
 O        -4.026992         0.766923        -2.801752
 C        -2.897311         1.349241        -2.158185
 H         1.702724        -1.457699         0.002555
 H         1.960922        -0.162514        -1.076904
 H         1.989736         0.322402         0.585286
 H        -2.762486        -1.094927        -0.424240
 H        -2.892888        -0.950014         1.856205
 H        -3.553485         1.706687        -0.060438
 H        -4.772409        -0.475795        -1.415867
 H        -5.571185         1.125296        -1.165193
 H        -1.958316         0.937569        -2.516022
 H        -3.048585         2.403057        -2.265621
