19
Iteration:   236
 C         1.334078        -0.179762        -0.282824
 C        -0.167128        -0.232136        -0.280924
 C        -1.300612         0.063616         0.057305
 C        -2.769007         0.007616         0.206393
 O        -3.034364         0.625942         1.667306
 C        -3.445156         0.843594        -0.797180
 C        -4.631972         0.301619        -1.646646
 O        -3.894818         0.548619        -2.859948
 C        -2.641219         0.869714        -2.089878
 H         1.911398         0.810062        -0.730705
 H         1.617722        -0.144935         0.774940
 H         1.831057        -1.037381        -0.798660
 H        -3.151290        -1.010591         0.254956
 H        -2.715750        -0.046412         2.282431
 H        -3.422012         1.958832        -0.520877
 H        -4.726089        -0.791696        -1.522360
 H        -5.747243         0.500031        -1.523674
 H        -1.877051         0.191076        -2.402541
 H        -2.109168         1.860774        -2.249496
