19
Iteration:  2746charge 0 multiplicity 1
 C         1.575541        -0.205612         0.089085
 C         0.153499         0.093187         0.251588
 C        -1.050812        -0.055552         0.107360
 C        -2.479804        -0.152668        -0.029109
 O        -3.217251        -0.425609         1.148646
 C        -3.234875         1.003953        -0.892997
 C        -4.709256         0.848204        -1.333391
 O        -4.389093         0.991257        -2.691520
 C        -2.983055         0.876124        -2.469937
 H         2.065924        -0.571666         0.965540
 H         1.872302        -0.904749        -0.759937
 H         2.038978         0.715757        -0.315370
 H        -2.767912        -0.986701        -0.744042
 H        -2.903982         0.217886         1.821230
 H        -3.025777         2.019423        -0.559920
 H        -5.054066        -0.188670        -1.121180
 H        -5.322823         1.632621        -0.918989
 H        -2.803325        -0.212148        -2.859472
 H        -2.371074         1.494538        -3.014044
