19
Iteration:  4188charge 0 multiplicity 1
 C         1.504132         0.165770         0.650538
 C         0.127365        -0.129212         0.124596
 C        -1.043200        -0.462890        -0.264437
 C        -2.531707        -0.314503        -0.411735
 O        -3.127628        -0.554123         0.912888
 C        -2.961827         1.011449        -1.010424
 C        -4.449045         1.224825        -1.020751
 O        -4.635458         1.033856        -2.389706
 C        -3.202380         0.897856        -2.585646
 H         1.408622         0.906073         1.514108
 H         2.007981        -0.850023         0.747687
 H         2.109678         0.801490        -0.067785
 H        -3.125718        -1.117683        -1.124176
 H        -2.567461        -1.302671         1.223354
 H        -2.185011         1.762340        -0.759598
 H        -5.193255         0.705752        -0.508913
 H        -4.647772         2.247052        -0.586330
 H        -2.908696        -0.104498        -3.001171
 H        -2.732867         1.703105        -3.126562
