19
Iteration:  3129
 C         1.459582        -0.197645         0.059878
 C        -0.033772        -0.137031        -0.140811
 C        -1.267843        -0.121667        -0.224350
 C        -2.713585        -0.125923         0.013712
 O        -2.990804         0.038430         1.445744
 C        -3.384678         1.037001        -0.759564
 C        -4.670795         0.716773        -1.483767
 O        -4.015744         0.520513        -2.762027
 C        -2.865499         1.218407        -2.199206
 H         2.087678        -0.180092        -0.892426
 H         1.809507         0.656589         0.779344
 H         1.694675        -1.180381         0.717048
 H        -3.053175        -1.107842        -0.331726
 H        -2.740816        -0.854112         1.772626
 H        -3.305468         1.935129        -0.127405
 H        -5.211154        -0.241224        -1.286220
 H        -5.409559         1.575700        -1.440173
 H        -1.931463         0.694496        -2.307594
 H        -2.821600         2.235624        -2.544260
