19
Iteration:  4474
 C         1.415432        -0.029944        -0.130736
 C        -0.016351        -0.106885        -0.078268
 C        -1.212877        -0.080953        -0.017043
 C        -2.695711        -0.274160        -0.134298
 O        -3.252966        -0.574261         1.132177
 C        -3.296559         1.050683        -0.619553
 C        -4.680176         0.675719        -1.425371
 O        -3.888709         0.826877        -2.626044
 C        -2.826848         1.491687        -2.015207
 H         1.824060        -0.409819        -1.043199
 H         1.764106         0.990700         0.009514
 H         2.025591        -0.644140         0.628060
 H        -2.818259        -1.108717        -1.008805
 H        -2.570913        -0.986417         1.671092
 H        -3.427806         1.728848         0.190367
 H        -5.096140        -0.189578        -1.166784
 H        -5.401647         1.515830        -1.410401
 H        -1.905345         0.942933        -2.390000
 H        -3.078371         2.550142        -2.059032
