19
Iteration:  3509
 C         1.633678        -0.208568         0.652542
 C         0.164671        -0.080532         0.454261
 C        -0.950759        -0.178284        -0.063097
 C        -2.367896        -0.065295        -0.357553
 O        -3.124412        -0.183037         0.861610
 C        -2.977749         1.100239        -1.245134
 C        -4.511710         1.129319        -1.061667
 O        -4.782380         0.727999        -2.440543
 C        -3.374962         0.684126        -2.713113
 H         1.897466        -0.130323         1.743232
 H         1.941216        -1.174370         0.265047
 H         2.124245         0.447665        -0.009350
 H        -2.618379        -1.001046        -0.837612
 H        -2.550500         0.129404         1.611930
 H        -2.553941         2.134960        -1.067858
 H        -4.796019         0.275422        -0.345783
 H        -5.071515         2.060171        -0.926204
 H        -2.996836        -0.238835        -3.177724
 H        -2.977921         1.358936        -3.517897
