19
Iteration:  2210
 C         1.642028        -0.331121         0.512907
 C         0.236701        -0.056914         0.312924
 C        -0.933018         0.033005        -0.000702
 C        -2.387071         0.016158        -0.235603
 O        -3.207008         0.194829         0.983903
 C        -3.066683         1.036079        -1.140160
 C        -4.631627         0.769930        -1.140573
 O        -4.676459         0.685147        -2.560444
 C        -3.212233         0.614023        -2.687025
 H         2.228783         0.245609         1.293836
 H         1.643407        -1.317464         0.939404
 H         2.225537        -0.349524        -0.382980
 H        -2.652450        -1.051206        -0.625788
 H        -2.723632         0.043848         1.800422
 H        -2.735220         2.074834        -1.079382
 H        -5.030542        -0.013212        -0.461688
 H        -5.353330         1.545204        -0.799138
 H        -2.969583        -0.388221        -2.958340
 H        -2.996557         1.327287        -3.496614
