19
Iteration:  3735charge 0 multiplicity 1
 C         1.483670        -0.121123        -0.003541
 C         0.070804         0.015181         0.046715
 C        -1.105534        -0.161150         0.092131
 C        -2.644939        -0.178191         0.004708
 O        -3.229507        -0.181229         1.366611
 C        -3.230059         0.971331        -0.851188
 C        -4.672751         0.915839        -1.458003
 O        -4.242443         0.939966        -2.820922
 C        -2.825895         0.779754        -2.291820
 H         2.149196         0.494904        -0.748294
 H         1.955920         0.037849         0.995099
 H         1.773253        -1.040825        -0.538363
 H        -2.921793        -1.080558        -0.392056
 H        -2.868250        -0.937161         1.820586
 H        -3.167384         1.942687        -0.412051
 H        -4.927041        -0.138349        -1.289327
 H        -5.364381         1.695658        -0.984896
 H        -2.467095        -0.260276        -2.383194
 H        -2.232603         1.653731        -2.791729
