19
Iteration:  4784charge 0 multiplicity 1
 C         1.525745         0.052473         0.371042
 C         0.079500        -0.190700         0.250697
 C        -1.075625        -0.238301        -0.050241
 C        -2.445222        -0.302047        -0.298524
 O        -3.181066        -0.636366         0.891101
 C        -3.030676         0.974087        -1.015382
 C        -4.528720         0.946570        -1.030589
 O        -4.513273         1.199032        -2.497447
 C        -3.156111         1.000279        -2.531207
 H         1.697279         0.453239         1.413550
 H         2.178615        -0.858163         0.192398
 H         1.775039         0.879814        -0.274345
 H        -2.772225        -1.058661        -1.133874
 H        -2.735985        -0.110009         1.609253
 H        -2.643334         1.809593        -0.507773
 H        -5.127482         0.028221        -0.762091
 H        -5.111725         1.870851        -0.572013
 H        -2.688040         0.250429        -3.184232
 H        -2.610781         1.967745        -2.960155
