19
Iteration:   663
 C         1.318240         0.272482         0.507247
 C         0.058595        -0.320115         0.149204
 C        -1.122631        -0.276063        -0.207170
 C        -2.542177        -0.154500        -0.275721
 O        -3.003108         0.090084         1.076427
 C        -2.973183         0.980457        -1.111120
 C        -4.450303         1.298163        -1.246132
 O        -4.533160         0.323435        -2.341187
 C        -3.152282         0.519937        -2.574940
 H         1.808033        -0.330714         1.422457
 H         1.958332         0.272418        -0.313658
 H         1.324749         1.256251         1.014251
 H        -3.068433        -1.083591        -0.579142
 H        -2.212417         0.517252         1.461408
 H        -2.375603         1.943522        -0.900243
 H        -5.048315         0.963661        -0.415152
 H        -4.621003         2.308293        -1.587376
 H        -2.667387        -0.407865        -2.873830
 H        -2.873645         1.231836        -3.415108
