19
Iteration:  1513
 C         1.348213         0.159313        -0.183667
 C        -0.054075        -0.052615         0.098303
 C        -1.246666        -0.178089         0.132068
 C        -2.676712        -0.329106         0.130234
 O        -3.335308        -0.131130         1.338402
 C        -3.018602         0.733391        -0.898623
 C        -4.450925         1.013692        -1.323763
 O        -4.155919         0.888251        -2.719851
 C        -2.763590         0.615408        -2.405921
 H         1.233016         0.416896        -1.240088
 H         1.782296         1.133442         0.360870
 H         1.933530        -0.783710        -0.102971
 H        -3.023501        -1.195413        -0.364648
 H        -3.137105         0.763381         1.706068
 H        -2.564493         1.676032        -0.525719
 H        -5.299225         0.449445        -0.919490
 H        -4.907303         2.021384        -1.156076
 H        -2.481660        -0.349027        -2.819632
 H        -2.042692         1.354849        -2.933816
