19
Iteration:  3494charge 0 multiplicity 1
 C         1.585453        -0.175359         0.652799
 C         0.230883        -0.071827         0.264820
 C        -0.944181        -0.180127        -0.054404
 C        -2.396195        -0.164317        -0.340327
 O        -3.189585        -0.081993         0.895112
 C        -2.992154         0.981658        -1.168165
 C        -4.565192         1.087155        -1.081714
 O        -4.734754         0.760297        -2.477184
 C        -3.287997         0.718205        -2.682587
 H         1.758700        -0.122020         1.671460
 H         2.073078        -1.115948         0.269419
 H         2.309935         0.692147         0.315595
 H        -2.673903        -1.059644        -0.827642
 H        -2.537594        -0.188439         1.622035
 H        -2.408339         1.920214        -0.976276
 H        -5.204561         0.556604        -0.428225
 H        -4.780643         2.130385        -0.760845
 H        -3.010690        -0.373400        -2.809244
 H        -3.032489         1.517338        -3.385230
