19
Iteration:  3886
 C         1.373789        -0.018308        -0.459286
 C        -0.124364        -0.225126        -0.121359
 C        -1.326972        -0.307084         0.031684
 C        -2.864111        -0.252164         0.246794
 O        -3.173145         0.094219         1.622690
 C        -3.478727         0.881419        -0.703784
 C        -4.594025         0.498766        -1.731513
 O        -3.773099         0.980921        -2.874915
 C        -2.598288         1.159819        -1.955931
 H         1.747340        -0.392363        -1.477444
 H         1.684247         1.058788        -0.578540
 H         2.200606        -0.388769         0.353362
 H        -3.268728        -1.255165         0.023270
 H        -2.877624        -0.543104         2.300941
 H        -3.503569         1.812594        -0.218004
 H        -4.666057        -0.552007        -1.886488
 H        -5.645548         0.759569        -1.616787
 H        -1.778995         0.415658        -1.954649
 H        -2.108379         2.201245        -2.108407
