19
Iteration:  1923
 C         1.281100        -0.012687        -0.526159
 C        -0.111693        -0.064464        -0.150327
 C        -1.324560        -0.125327         0.236381
 C        -2.810026        -0.021915         0.312686
 O        -3.257422         0.280252         1.668529
 C        -3.153078         1.017964        -0.839711
 C        -4.539008         1.086882        -1.669720
 O        -3.943685         0.339203        -2.800262
 C        -2.615296         0.383146        -2.169084
 H         1.632973        -0.988888        -0.275160
 H         1.501128         0.323955        -1.540057
 H         1.896450         0.586048         0.174531
 H        -3.396584        -1.022236         0.142468
 H        -2.494990         0.093338         2.258345
 H        -2.780552         1.985879        -0.554487
 H        -5.389999         0.473639        -1.330637
 H        -4.945768         2.154464        -1.783641
 H        -2.228128        -0.647252        -2.121242
 H        -2.018799         1.119598        -2.704443
