19
Iteration:  4957charge 0 multiplicity 1
 C         1.604064        -0.199192         0.579214
 C         0.180681        -0.219096         0.023637
 C        -1.032709        -0.177358        -0.236280
 C        -2.485058        -0.172173        -0.321190
 O        -3.091130        -0.408653         0.944392
 C        -3.205688         1.151985        -0.847980
 C        -4.660334         0.810095        -1.126115
 O        -4.490677         0.845427        -2.579007
 C        -3.159192         1.357711        -2.409823
 H         2.137122         0.670809         0.158701
 H         1.540929        -0.111877         1.680063
 H         2.124317        -1.105576         0.239125
 H        -2.760243        -1.079679        -1.032900
 H        -2.606283        -1.181508         1.243114
 H        -2.846277         2.036017        -0.202255
 H        -4.987506        -0.291272        -0.707109
 H        -5.379454         1.546736        -0.885233
 H        -2.522959         0.598902        -3.031530
 H        -3.009668         2.459497        -2.783425
