19
Iteration:   630charge 0 multiplicity 1
 C         1.609693         0.055548         0.731162
 C         0.124382        -0.070782         0.295096
 C        -0.999038        -0.174481        -0.154096
 C        -2.472334        -0.062232        -0.348436
 O        -3.011219         0.174836         1.046515
 C        -2.982298         0.978317        -1.298355
 C        -4.501595         1.175064        -1.188346
 O        -4.700209         0.362545        -2.410851
 C        -3.407622         0.488951        -2.697469
 H         1.764808        -1.034162         1.180038
 H         2.247266         0.013572        -0.085060
 H         1.911743         0.900391         1.364554
 H        -2.685819        -1.038106        -0.708197
 H        -2.606237        -0.510778         1.661820
 H        -2.407930         1.959060        -1.236787
 H        -4.819214         0.572772        -0.343940
 H        -4.975812         2.139915        -1.132263
 H        -2.998424        -0.464194        -3.037661
 H        -3.225132         1.332085        -3.438329
