19
Iteration:  3731charge 0 multiplicity 1
 C         1.498214        -0.115336         0.028152
 C         0.102095         0.016378         0.044830
 C        -1.137888        -0.184995         0.059606
 C        -2.655050        -0.150627        -0.000416
 O        -3.214184        -0.164408         1.332585
 C        -3.207753         0.966525        -0.867787
 C        -4.651160         0.914050        -1.423041
 O        -4.258659         0.930583        -2.793053
 C        -2.840363         0.779837        -2.314156
 H         2.041850         0.661974        -0.703635
 H         1.889472        -0.069705         1.077917
 H         1.754944        -1.061550        -0.401473
 H        -3.017788        -1.161205        -0.488401
 H        -2.886003        -1.003719         1.751076
 H        -3.008170         1.944722        -0.384011
 H        -5.085396        -0.225982        -1.189255
 H        -5.358424         1.716968        -1.106809
 H        -2.476443        -0.308342        -2.351213
 H        -2.300890         1.706480        -2.689929
