19
Iteration:  3363
 C         1.366227         0.045835        -0.116295
 C        -0.097706        -0.116034        -0.118753
 C        -1.209583        -0.437839         0.188472
 C        -2.639719        -0.259572         0.179409
 O        -3.209243        -0.010025         1.448675
 C        -3.111787         0.793806        -0.868061
 C        -4.647956         0.768585        -1.465959
 O        -4.118892         1.105874        -2.826175
 C        -2.767996         0.811144        -2.339710
 H         1.934204        -0.722786         0.331286
 H         1.761365         0.011550        -1.167994
 H         1.661192         1.104700         0.331477
 H        -3.154547        -1.349463        -0.143558
 H        -2.709566         0.611554         2.012867
 H        -2.791593         1.874714        -0.478186
 H        -5.071323        -0.251288        -1.317047
 H        -5.240932         1.638557        -1.143978
 H        -2.429326        -0.220017        -2.760662
 H        -2.122137         1.655966        -2.655596
