19
Iteration:  1345
 C         1.320861        -0.340193        -0.102080
 C        -0.143789        -0.437552        -0.261727
 C        -1.299857        -0.274952        -0.143319
 C        -2.736390        -0.074823         0.144548
 O        -2.869363         0.530170         1.482909
 C        -3.672049         0.820976        -0.726164
 C        -4.341960         0.002513        -1.830787
 O        -3.665290         0.776949        -2.841557
 C        -3.127914         1.749219        -1.771114
 H         1.509545         0.684864        -0.710953
 H         1.610476        -0.052888         0.904180
 H         1.935109        -1.182055        -0.551040
 H        -3.048604        -1.085502         0.155806
 H        -2.331305        -0.010227         2.139244
 H        -4.361314         1.164548         0.062663
 H        -4.089400        -1.103996        -1.859635
 H        -5.486345         0.011256        -2.032108
 H        -2.062065         1.916776        -1.757869
 H        -3.797935         2.572484        -1.856530
