19
Iteration:  4812charge 0 multiplicity 1
 C         1.685953        -0.046677         0.514158
 C         0.203738        -0.064533         0.174223
 C        -0.976601        -0.237429        -0.091561
 C        -2.443262        -0.369941        -0.344815
 O        -3.237578        -0.692558         0.805557
 C        -3.060888         1.090800        -0.950804
 C        -4.645596         1.123770        -1.024267
 O        -4.623058         1.041740        -2.484600
 C        -3.192018         1.040502        -2.511068
 H         1.889511         0.469236         1.423429
 H         2.032922        -1.030261         0.694030
 H         2.358569         0.517844        -0.241919
 H        -2.723168        -1.019837        -1.162607
 H        -3.237575         0.117821         1.383427
 H        -2.523194         1.961065        -0.338058
 H        -5.097091         0.138724        -0.687314
 H        -5.108936         2.008084        -0.902659
 H        -2.661712         0.133761        -2.973707
 H        -2.740492         1.820426        -3.054935
