19
Iteration:  3321
 C         1.261105        -0.064019        -0.500400
 C        -0.034108        -0.164971         0.020564
 C        -1.229790        -0.017982         0.138148
 C        -2.708884        -0.146587         0.230705
 O        -3.421887        -0.081774         1.433341
 C        -3.222092         0.760728        -0.779318
 C        -4.544137         0.643198        -1.502409
 O        -3.914954         1.061067        -2.713775
 C        -2.610061         0.800763        -2.168960
 H         1.865532        -1.014716        -0.325241
 H         1.394373         0.414843        -1.486079
 H         1.965327         0.669774         0.009320
 H        -2.815876        -1.127374        -0.146011
 H        -3.473879         0.847985         1.632481
 H        -3.130849         1.756795        -0.211696
 H        -4.731612        -0.442073        -1.706438
 H        -5.384294         1.267041        -1.209678
 H        -2.231051        -0.074758        -2.565901
 H        -1.727045         1.460851        -2.275369
