19
Iteration:  2268
 C         1.526006        -0.342385         0.615364
 C         0.174862         0.062556         0.181446
 C        -0.997914         0.389717        -0.018745
 C        -2.403078        -0.068818        -0.232735
 O        -2.980037        -0.235674         1.093577
 C        -3.124675         0.906933        -1.138182
 C        -4.628462         1.227326        -1.247971
 O        -4.730541         0.721766        -2.609879
 C        -3.240917         0.399921        -2.580274
 H         2.175766         0.626121         0.858766
 H         1.505096        -0.971821         1.474265
 H         1.962718        -0.928613        -0.217453
 H        -2.407097        -0.951566        -0.926037
 H        -2.317839        -0.397033         1.829617
 H        -2.393390         1.756658        -1.097851
 H        -5.264744         0.659752        -0.486662
 H        -4.636093         2.323356        -1.401208
 H        -3.046243        -0.614320        -2.906097
 H        -2.607505         0.979292        -3.343002
