19
Iteration:  4082charge 0 multiplicity 1
 C         1.484167        -0.226355         0.193092
 C         0.075116        -0.218816         0.154273
 C        -1.073736         0.073297        -0.063988
 C        -2.546676        -0.147439        -0.210581
 O        -3.188233        -0.402240         1.040488
 C        -3.168595         1.056666        -0.809984
 C        -4.671943         0.862984        -1.243700
 O        -4.309101         0.736190        -2.606587
 C        -2.999986         1.238923        -2.368363
 H         1.912469        -0.780497         0.963753
 H         1.952238        -0.639314        -0.661880
 H         1.886721         0.841332         0.221988
 H        -2.604116        -1.038742        -0.769622
 H        -2.700292        -0.946687         1.701759
 H        -2.871054         2.046366        -0.291497
 H        -5.122055        -0.115363        -0.788822
 H        -5.198020         1.818976        -1.156965
 H        -2.284276         0.583165        -2.924435
 H        -2.913553         2.364820        -2.575628
