19
Iteration:   710
 C         1.254372         0.292713         0.151915
 C        -0.117760         0.000218        -0.151099
 C        -1.280877        -0.487047        -0.043530
 C        -2.694502        -0.239434        -0.003706
 O        -3.142343         0.012384         1.330451
 C        -2.846934         0.945676        -0.973174
 C        -4.403400         1.229239        -1.270395
 O        -4.311912         0.438013        -2.567403
 C        -2.874319         0.500621        -2.451617
 H         1.547898        -0.072250         1.098030
 H         1.946399         0.043050        -0.710395
 H         1.337231         1.362579         0.316676
 H        -3.200053        -1.119566        -0.283117
 H        -2.790992         0.926723         1.566815
 H        -2.137462         1.782139        -0.739148
 H        -5.168668         0.850345        -0.587634
 H        -4.608152         2.263801        -1.555325
 H        -2.287045        -0.347200        -2.801216
 H        -2.528873         1.329996        -3.135364
