19
Iteration:  3786charge 0 multiplicity 1
 C         1.322168        -0.133880        -0.325231
 C        -0.018300        -0.099968         0.019022
 C        -1.228076         0.047640         0.224202
 C        -2.658099        -0.246938         0.151534
 O        -3.349457        -0.092832         1.372135
 C        -3.185682         0.810847        -0.777563
 C        -4.609608         0.576233        -1.495237
 O        -4.023242         1.140173        -2.795345
 C        -2.694061         0.899200        -2.232048
 H         1.599440         0.244972        -1.328540
 H         1.937853         0.509858         0.318479
 H         1.753096        -1.077522        -0.482284
 H        -2.820310        -1.371107        -0.138793
 H        -2.768774        -0.104646         2.131599
 H        -3.240748         1.744528        -0.220659
 H        -4.842402        -0.522102        -1.485871
 H        -5.447520         1.233548        -1.270734
 H        -2.197469        -0.092395        -2.513020
 H        -1.867682         1.612553        -2.534046
