19
Iteration:  4190charge 0 multiplicity 1
 C         1.511444         0.173945         0.656341
 C         0.133151        -0.128807         0.138512
 C        -1.037893        -0.469576        -0.272728
 C        -2.522599        -0.336042        -0.406235
 O        -3.124919        -0.553362         0.908528
 C        -2.972452         1.007755        -1.010653
 C        -4.471092         1.243462        -1.018016
 O        -4.633446         1.038790        -2.389232
 C        -3.201101         0.891565        -2.595720
 H         1.428027         0.824355         1.488794
 H         1.972360        -0.780048         0.813422
 H         2.096303         0.783144        -0.136696
 H        -3.128890        -1.081800        -1.110442
 H        -2.573626        -1.282921         1.188610
 H        -2.141811         1.794129        -0.745149
 H        -5.159139         0.699063        -0.504333
 H        -4.631310         2.221155        -0.599731
 H        -3.005734        -0.150638        -3.003543
 H        -2.719376         1.765108        -3.130188
