19
Iteration:  2355
 C         1.437879         0.210708         0.505213
 C         0.126022        -0.310795         0.124853
 C        -1.081264        -0.357990        -0.042568
 C        -2.524160        -0.306319        -0.175372
 O        -3.198744         0.174437         0.994433
 C        -2.857268         0.728392        -1.187981
 C        -4.365490         0.960526        -1.006701
 O        -4.593439         0.934424        -2.501387
 C        -3.225379         0.627328        -2.743485
 H         1.681949         1.193420        -0.061800
 H         1.370790         0.679208         1.426629
 H         2.299353        -0.385872         0.379870
 H        -3.000569        -1.337605        -0.307217
 H        -2.816376        -0.167959         1.836533
 H        -2.298078         1.694159        -1.060777
 H        -4.896485         0.063723        -0.582374
 H        -4.720209         1.958792        -0.598672
 H        -3.163089        -0.378323        -3.050521
 H        -2.628335         1.471765        -3.095209
