19
Iteration:   775
 C         1.442085         0.106190        -0.429011
 C         0.024645        -0.096701         0.110539
 C        -1.185100        -0.090850         0.380692
 C        -2.702213        -0.111877         0.165583
 O        -3.368106         0.031365         1.474777
 C        -3.153152         0.902076        -0.856718
 C        -4.646862         0.793545        -1.448416
 O        -4.015899         0.797919        -2.841799
 C        -2.758993         0.570295        -2.353568
 H         2.241971         0.079138         0.357759
 H         1.652104        -0.583996        -1.302934
 H         1.357492         1.097274        -0.889055
 H        -2.998580        -1.023362        -0.329345
 H        -3.305838        -0.745337         2.029582
 H        -2.959075         1.939852        -0.446159
 H        -5.236733        -0.102822        -1.285080
 H        -5.176562         1.703002        -1.336547
 H        -2.386667        -0.459535        -2.291397
 H        -2.000256         1.118688        -2.975291
