19
Iteration:    83
 C         1.421934        -0.528949         0.397303
 C         0.150593         0.065646         0.175236
 C        -1.018007         0.111018        -0.156491
 C        -2.382814         0.099245         0.037318
 O        -2.759753         0.439869         1.389816
 C        -3.377358         0.727527        -1.045881
 C        -4.791749         0.165062        -1.477484
 O        -4.535686         0.783752        -2.815502
 C        -3.070926         1.006349        -2.502885
 H         1.849654        -0.084097         1.381940
 H         1.401146        -1.640405         0.457597
 H         2.174770        -0.303197        -0.366093
 H        -2.630496        -1.006628         0.038042
 H        -2.370910         1.345936         1.587767
 H        -3.758701         1.729590        -0.688722
 H        -4.986292        -0.947187        -1.647876
 H        -5.766814         0.442327        -0.911398
 H        -2.446206         0.262110        -3.130790
 H        -2.626744         2.050549        -2.565804
