19
Iteration:  2922
 C         1.308070         0.283687         0.753244
 C         0.095763        -0.092689         0.041895
 C        -1.031041        -0.525755        -0.216740
 C        -2.500480        -0.431374        -0.335024
 O        -2.893071        -0.284387         1.030992
 C        -2.925274         0.752804        -1.157463
 C        -4.383690         1.336179        -1.054093
 O        -4.705148         1.128531        -2.491738
 C        -3.353893         0.550589        -2.630033
 H         1.476987         1.365716         0.983078
 H         1.387888        -0.436230         1.624704
 H         2.203043         0.172208         0.090270
 H        -2.931044        -1.331303        -0.734574
 H        -2.074374        -0.106268         1.535396
 H        -2.145857         1.551584        -1.040101
 H        -5.188401         0.725283        -0.576263
 H        -4.475468         2.378096        -0.673513
 H        -3.339609        -0.471094        -3.042663
 H        -2.577673         1.313158        -3.153321
