19
Iteration:  1418charge 0 multiplicity 1
 C         1.307693        -0.363879        -0.302291
 C        -0.052356         0.056648        -0.083707
 C        -1.238271         0.094824         0.159788
 C        -2.700299        -0.143788         0.232267
 O        -3.163999         0.098001         1.570411
 C        -3.423823         0.824837        -0.809456
 C        -4.522818         0.214400        -1.735348
 O        -3.948043         0.913152        -2.899024
 C        -2.725346         1.271577        -2.049443
 H         1.628966         0.038040        -1.257878
 H         1.997838        -0.080147         0.474439
 H         1.187147        -1.444096        -0.424798
 H        -2.818334        -1.279551        -0.028217
 H        -2.373238         0.319110         2.055262
 H        -3.735136         1.627434        -0.071080
 H        -4.553653        -0.874514        -1.898553
 H        -5.576256         0.307054        -1.569034
 H        -1.945006         0.571154        -2.451488
 H        -2.465405         2.358339        -2.032482
