19
Iteration:  4980
 C         1.578876        -0.231642         0.420225
 C         0.104632        -0.135617         0.204400
 C        -1.021070        -0.082993        -0.263988
 C        -2.463036        -0.193512        -0.324942
 O        -3.033975        -0.346297         0.967609
 C        -3.264156         0.948799        -0.861193
 C        -4.765214         0.802555        -1.174661
 O        -4.452920         0.960058        -2.604675
 C        -3.024633         1.260169        -2.294112
 H         1.983935         0.521909        -0.303286
 H         1.763346         0.106344         1.481070
 H         1.936936        -1.193203         0.166788
 H        -2.739014        -1.172250        -0.944897
 H        -2.777174        -1.270942         1.182285
 H        -3.162181         1.811410        -0.160531
 H        -5.275660        -0.293969        -1.103370
 H        -5.376156         1.556534        -0.809910
 H        -2.287055         0.504753        -2.855033
 H        -2.735301         2.357151        -2.463134
