19
Iteration:  1184charge 0 multiplicity 1
 C         0.743555        -0.845147        -1.035826
 C        -0.287258        -0.348456        -0.091339
 C        -1.409529        -0.091727         0.208418
 C        -2.839685         0.056146         0.551575
 O        -3.182398         1.005999         1.559098
 C        -3.631743         0.332098        -0.684989
 C        -3.040818        -0.224659        -2.027607
 O        -3.308456         1.041210        -2.749708
 C        -3.600136         1.734389        -1.482937
 H         1.295118        -0.083420        -1.464454
 H         1.527973        -1.641233        -0.788633
 H         0.247198        -1.122616        -1.959811
 H        -3.223095        -0.918333         0.906764
 H        -2.524865         1.713730         1.322852
 H        -4.668271         0.126387        -0.583111
 H        -1.872965        -0.475551        -1.932494
 H        -3.460536        -1.075270        -2.616279
 H        -2.757758         2.382468        -1.151196
 H        -4.611109         2.182042        -1.431752
