19
Iteration:  1519
 C         1.340696         0.225989        -0.129403
 C        -0.037806        -0.050288         0.072266
 C        -1.260599        -0.242127         0.117945
 C        -2.667301        -0.313780         0.091639
 O        -3.329557        -0.152046         1.341572
 C        -3.021236         0.749936        -0.933748
 C        -4.483697         1.098602        -1.312597
 O        -4.187053         0.870227        -2.697536
 C        -2.757039         0.569804        -2.401517
 H         1.443794         0.320817        -1.255858
 H         1.762344         0.998462         0.400854
 H         1.972097        -0.659170        -0.070913
 H        -3.069752        -1.377922        -0.205983
 H        -3.070492         0.734576         1.720716
 H        -2.365559         1.567990        -0.597413
 H        -5.340060         0.526054        -0.893274
 H        -4.629225         2.204654        -1.262990
 H        -2.387176        -0.396558        -2.846463
 H        -2.126742         1.279178        -2.863879
