19
Iteration:  1497charge 0 multiplicity 1
 C         1.361759         0.094898        -0.329205
 C        -0.028890        -0.060726         0.162607
 C        -1.203640        -0.165865         0.259864
 C        -2.672223        -0.258513         0.081690
 O        -3.394981        -0.106063         1.379897
 C        -3.088125         0.877504        -0.890544
 C        -4.540821         0.819960        -1.339596
 O        -4.113781         0.947179        -2.770997
 C        -2.726391         0.680162        -2.389867
 H         1.567871         0.288979        -1.401632
 H         1.854204         0.724101         0.282640
 H         1.968018        -0.802515        -0.221326
 H        -2.938420        -1.369349        -0.099452
 H        -3.131253         0.769811         1.665158
 H        -2.643602         1.767309        -0.420173
 H        -4.961881        -0.196783        -1.222449
 H        -5.166826         1.661824        -0.989146
 H        -2.307113        -0.339618        -2.663366
 H        -2.041123         1.347256        -2.847872
