19
Iteration:  2464charge 0 multiplicity 1
 C         1.526240         0.092360         0.021086
 C         0.045214         0.089905        -0.191206
 C        -1.147117        -0.126177         0.029895
 C        -2.577362        -0.293681         0.115265
 O        -3.243148        -0.162842         1.430540
 C        -3.239555         0.821688        -0.804233
 C        -4.690129         0.884899        -1.444868
 O        -4.167343         1.091138        -2.833842
 C        -2.913710         0.543604        -2.300466
 H         2.041757        -0.272462        -0.956310
 H         1.965079         0.958987         0.500089
 H         1.794656        -0.636361         0.781039
 H        -2.927616        -1.246545        -0.196690
 H        -2.677880        -0.607716         2.095492
 H        -2.857692         1.825730        -0.472693
 H        -5.249487        -0.007912        -1.537624
 H        -5.390321         1.665703        -1.156550
 H        -2.786499        -0.590414        -2.372601
 H        -2.103179         1.078159        -2.865217
