19
Iteration:  3878charge 0 multiplicity 1
 C         1.329599         0.008885        -0.464325
 C        -0.073365        -0.251367        -0.096764
 C        -1.328816        -0.271237         0.047798
 C        -2.817493        -0.230484         0.232582
 O        -3.191509         0.118879         1.594338
 C        -3.444629         0.832970        -0.666790
 C        -4.544722         0.478991        -1.752016
 O        -3.796778         1.006512        -2.856207
 C        -2.624616         1.135140        -1.955719
 H         1.602135        -0.542165        -1.404810
 H         1.345149         1.088269        -0.422273
 H         1.907155        -0.538657         0.088686
 H        -3.176866        -1.350447         0.001775
 H        -2.926625        -0.635398         2.185426
 H        -3.585474         1.768895        -0.108742
 H        -4.591313        -0.606062        -1.739213
 H        -5.513803         1.043237        -1.691947
 H        -1.809867         0.342182        -2.209268
 H        -2.094583         2.159139        -2.164024
