19
Iteration:  1922
 C         1.279004        -0.013240        -0.514710
 C        -0.108317        -0.070528        -0.160316
 C        -1.328394        -0.125259         0.222017
 C        -2.811152        -0.020137         0.319507
 O        -3.249418         0.283227         1.673369
 C        -3.154438         1.012681        -0.843859
 C        -4.544089         1.082705        -1.661554
 O        -3.941208         0.337819        -2.803172
 C        -2.618684         0.386815        -2.169266
 H         1.599982        -0.946541        -0.238653
 H         1.519771         0.360865        -1.547248
 H         1.907998         0.566136         0.192865
 H        -3.440984        -1.043105         0.132485
 H        -2.519564         0.092158         2.266892
 H        -2.789320         2.003324        -0.573590
 H        -5.356954         0.469563        -1.355473
 H        -4.895203         2.183271        -1.777172
 H        -2.218693        -0.616403        -2.127262
 H        -2.036729         1.109895        -2.711044
