19
Iteration:   526charge 0 multiplicity 1
 C         1.532647        -0.302631         0.700902
 C         0.221734         0.039838         0.289453
 C        -0.854056         0.214074        -0.238512
 C        -2.318023         0.094250        -0.169426
 O        -2.878825         0.239861         1.191691
 C        -3.168566         0.871747        -1.165748
 C        -4.770052         0.764965        -1.191477
 O        -4.713902         0.682729        -2.757865
 C        -3.334276         0.308785        -2.613257
 H         1.697199        -1.272460         0.265615
 H         2.328705         0.426072         0.129609
 H         1.699061        -0.406083         1.813070
 H        -2.599237        -0.947036        -0.452721
 H        -2.657670         1.149050         1.498753
 H        -2.972848         1.908671        -1.246194
 H        -5.170430        -0.165911        -0.761935
 H        -5.300248         1.686340        -0.841981
 H        -3.157399        -0.814593        -2.889355
 H        -2.809861         0.950700        -3.332512
