19
Iteration:  1556charge 0 multiplicity 1
 C         1.330212         0.391100         0.133068
 C        -0.040849        -0.158301        -0.044501
 C        -1.171076        -0.491616        -0.006777
 C        -2.658568        -0.260902        -0.025268
 O        -3.250410        -0.209476         1.297712
 C        -2.891728         0.937506        -0.974726
 C        -4.388562         1.383690        -1.357049
 O        -4.367045         0.745687        -2.621756
 C        -2.942491         0.381606        -2.406345
 H         1.748718         0.683348        -0.790987
 H         1.394458         1.339581         0.728788
 H         1.837357        -0.393344         0.679410
 H        -3.035112        -1.238867        -0.418903
 H        -2.642292         0.152053         2.011379
 H        -2.248212         1.797205        -0.824322
 H        -5.271295         1.177005        -0.736638
 H        -4.470017         2.531549        -1.282919
 H        -2.743660        -0.678165        -2.450065
 H        -2.256627         0.988992        -3.079050
