19
Iteration:  1848charge 0 multiplicity 1
 C         1.442493        -0.039562         0.057439
 C         0.015780        -0.324568         0.145215
 C        -1.253522        -0.391072        -0.015813
 C        -2.649861        -0.064676         0.127495
 O        -2.988502         0.654164         1.347229
 C        -3.134526         0.960812        -1.001271
 C        -4.651049         0.693652        -1.347875
 O        -4.293142         0.501736        -2.771047
 C        -2.910912         0.743139        -2.508610
 H         1.969294        -1.025559        -0.151392
 H         1.636450         0.725068        -0.644249
 H         1.970734         0.204221         0.983632
 H        -3.207030        -0.947309         0.156929
 H        -2.976284         0.052185         2.121259
 H        -2.824689         1.950646        -0.709471
 H        -5.018735        -0.224079        -0.781712
 H        -5.304558         1.527963        -1.360397
 H        -2.252449        -0.164563        -2.761245
 H        -2.499206         1.637732        -3.079473
