19
Iteration:  4761
 C         1.497386         0.124381         0.332114
 C         0.092526        -0.194164         0.176433
 C        -1.104648        -0.243442        -0.076787
 C        -2.483460        -0.437459        -0.276348
 O        -3.208996        -0.517413         1.015283
 C        -3.102832         0.833107        -0.983989
 C        -4.521121         0.906904        -1.112709
 O        -4.510803         1.323339        -2.514132
 C        -3.021402         1.042086        -2.497458
 H         1.804931         0.315630         1.377119
 H         2.166007        -0.642652        -0.103227
 H         1.642361         1.134159        -0.152801
 H        -2.780465        -1.384693        -0.944766
 H        -2.510482        -0.731600         1.657221
 H        -2.578995         1.604863        -0.484486
 H        -5.127980        -0.041413        -1.140102
 H        -5.143105         1.646723        -0.456930
 H        -2.554121         0.161119        -2.955644
 H        -2.404395         1.823241        -3.078818
