19
Iteration:  4596
 C         1.343484         0.092218        -0.356957
 C        -0.042696        -0.116933        -0.102556
 C        -1.211376        -0.241505         0.175748
 C        -2.674092        -0.253269        -0.034034
 O        -3.408554        -0.625297         1.197585
 C        -3.280743         0.973518        -0.592780
 C        -4.502098         0.628186        -1.488710
 O        -3.927889         1.017689        -2.684782
 C        -2.699311         1.397537        -1.993163
 H         1.997989        -0.737411        -0.391000
 H         1.496213         0.596459        -1.277172
 H         1.790141         0.684127         0.513892
 H        -2.864405        -0.973095        -0.707936
 H        -2.961471        -0.447334         2.021866
 H        -3.458192         1.774304         0.008739
 H        -4.806010        -0.535687        -1.397666
 H        -5.458780         1.206063        -1.356707
 H        -1.758731         0.926607        -2.438540
 H        -2.504258         2.613066        -1.994481
