19
Iteration:  2473charge 0 multiplicity 1
 C         1.512572         0.056091        -0.052750
 C         0.053753         0.091374        -0.085847
 C        -1.145595        -0.108842         0.045211
 C        -2.639164        -0.266764         0.106978
 O        -3.277155        -0.138980         1.432158
 C        -3.228985         0.809278        -0.877042
 C        -4.684783         0.856527        -1.424499
 O        -4.173823         1.043731        -2.779413
 C        -2.813309         0.600233        -2.324573
 H         1.982413        -0.298411        -1.048044
 H         1.945328         1.116372         0.155931
 H         1.677793        -0.726191         0.640546
 H        -2.743626        -1.339780        -0.385669
 H        -2.745746        -0.646814         2.074416
 H        -3.068348         1.797839        -0.387094
 H        -5.114434        -0.141655        -1.403439
 H        -5.330558         1.636655        -1.056772
 H        -2.801986        -0.380247        -2.598308
 H        -1.955980         1.221670        -2.609563
