19
Iteration:  2099charge 0 multiplicity 1
 C         1.361141        -0.147259         0.153765
 C        -0.059518        -0.070324        -0.161710
 C        -1.283987        -0.090037        -0.259808
 C        -2.677713        -0.051198         0.227635
 O        -2.817968         0.466869         1.581898
 C        -3.350617         0.831370        -0.899216
 C        -4.708762         0.690231        -1.541124
 O        -4.190050         0.686049        -2.862205
 C        -2.794582         0.538763        -2.291921
 H         1.529017        -0.223653         1.264253
 H         1.878819        -1.091753        -0.259070
 H         1.716642         0.798649        -0.276880
 H        -3.138810        -0.974959         0.192985
 H        -1.961577         0.153610         1.923533
 H        -3.176124         1.861673        -0.684493
 H        -5.257496        -0.389991        -1.392682
 H        -5.391068         1.560003        -1.285415
 H        -2.539297        -0.494151        -2.385075
 H        -2.071903         1.108746        -2.872960
