19
Iteration:  1554
 C         1.342528         0.394387         0.134491
 C        -0.041985        -0.144130        -0.058642
 C        -1.168110        -0.502887         0.015360
 C        -2.673470        -0.269661        -0.012800
 O        -3.257484        -0.208245         1.297696
 C        -2.892951         0.944074        -0.955591
 C        -4.402359         1.362501        -1.370156
 O        -4.360226         0.755818        -2.632559
 C        -2.933944         0.401739        -2.411934
 H         1.747838         0.680352        -0.857229
 H         1.491086         1.247877         0.645343
 H         1.896725        -0.381279         0.631344
 H        -3.077414        -1.316079        -0.370637
 H        -2.665006         0.182385         1.989708
 H        -2.221329         1.775677        -0.789064
 H        -5.271438         1.143131        -0.731597
 H        -4.435155         2.527564        -1.331834
 H        -2.756506        -0.688244        -2.400181
 H        -2.305276         0.972599        -3.043495
