19
Iteration:   243charge 0 multiplicity 1
 C         1.313192        -0.164785        -0.342407
 C        -0.140157        -0.207920        -0.311755
 C        -1.299802         0.001574         0.110587
 C        -2.765320         0.012955         0.255318
 O        -3.117441         0.616163         1.697352
 C        -3.374093         0.897092        -0.820854
 C        -4.574195         0.323350        -1.621515
 O        -3.872220         0.541183        -2.862910
 C        -2.670356         0.840140        -2.132668
 H         1.632780         0.742565        -0.859891
 H         1.573683         0.001512         0.681704
 H         1.804371        -1.007978        -0.843337
 H        -3.209299        -0.990896         0.303739
 H        -2.757152        -0.125414         2.268001
 H        -3.509859         1.859121        -0.379313
 H        -4.573393        -0.760853        -1.399773
 H        -5.579222         0.641269        -1.696856
 H        -1.935791         0.040157        -2.301297
 H        -2.188699         1.828155        -2.286896
