19
Iteration:  3772charge 0 multiplicity 1
 C         1.420523        -0.123517        -0.278190
 C        -0.013077        -0.109835         0.030807
 C        -1.239372         0.098503         0.188071
 C        -2.608543        -0.212652         0.120414
 O        -3.329245        -0.154522         1.417799
 C        -3.299412         0.809432        -0.849466
 C        -4.616969         0.709509        -1.478718
 O        -4.076472         1.072332        -2.785448
 C        -2.660501         0.841609        -2.265234
 H         1.492643         0.453867        -1.111745
 H         2.010431         0.212190         0.566597
 H         1.674440        -1.248196        -0.196896
 H        -2.666269        -1.170343        -0.401797
 H        -2.634083        -0.335440         2.090338
 H        -3.060183         1.816856        -0.401047
 H        -5.056397        -0.205577        -1.578050
 H        -5.380301         1.294570        -1.036130
 H        -2.375257        -0.116429        -2.722583
 H        -2.022549         1.626734        -2.458689
