19
Iteration:  2881
 C         1.288938         0.381328         0.658330
 C         0.127827        -0.351510         0.170243
 C        -0.996409        -0.520738        -0.281487
 C        -2.481880        -0.428624        -0.344668
 O        -3.022213        -0.096460         1.018832
 C        -2.900041         0.678457        -1.169962
 C        -4.355556         1.142775        -0.974621
 O        -4.632033         1.244364        -2.432894
 C        -3.340119         0.594153        -2.678155
 H         0.900268         1.423625         1.065294
 H         1.891321        -0.064916         1.434654
 H         1.850498         0.685533        -0.178858
 H        -2.943454        -1.350552        -0.699236
 H        -2.526143        -0.654944         1.611506
 H        -2.133568         1.547309        -1.160504
 H        -4.698087         0.263132        -0.452473
 H        -4.447121         2.145835        -0.512373
 H        -3.404355        -0.336654        -3.259072
 H        -2.853023         1.180592        -3.313560
