19
Iteration:  2967
 C         1.500757        -0.000551         0.596367
 C         0.121417        -0.035028         0.224181
 C        -1.016650        -0.180733        -0.209270
 C        -2.480980        -0.210311        -0.278976
 O        -3.031100        -0.430207         0.962943
 C        -3.013560         0.932344        -1.152403
 C        -4.480968         1.226537        -1.071400
 O        -4.670372         0.991733        -2.514736
 C        -3.252827         0.547362        -2.545139
 H         1.884653         1.113739         0.485491
 H         1.545361        -0.343976         1.654646
 H         2.214408        -0.551734        -0.021646
 H        -2.735499        -1.095248        -0.808596
 H        -2.830642         0.364029         1.470358
 H        -2.325346         1.862625        -1.053441
 H        -5.076705         0.618403        -0.356459
 H        -4.829580         2.259466        -0.881047
 H        -3.172774        -0.568779        -2.547398
 H        -2.698157         1.148659        -3.409021
