19
Iteration:  4488
 C         1.474350        -0.037600        -0.204512
 C        -0.038372        -0.044893        -0.102661
 C        -1.247387        -0.096572        -0.023495
 C        -2.701563        -0.176224        -0.074628
 O        -3.310068        -0.708043         1.162194
 C        -3.411342         1.096203        -0.592945
 C        -4.583871         0.728438        -1.397439
 O        -3.878150         0.749513        -2.689753
 C        -2.764405         1.521854        -1.980693
 H         1.726464        -0.581726        -1.111651
 H         1.894249         0.965475        -0.158732
 H         1.852018        -0.560780         0.721107
 H        -3.043296        -1.037285        -0.845100
 H        -2.545460        -0.817596         1.760625
 H        -3.387213         1.933769         0.202177
 H        -4.925714        -0.366165        -1.337916
 H        -5.516817         1.413819        -1.341301
 H        -1.744039         1.140217        -2.171351
 H        -2.738739         2.493162        -2.287795
