19
Iteration:   529
 C         1.567893        -0.319899         0.708975
 C         0.202797         0.048991         0.324653
 C        -0.874513         0.245181        -0.232591
 C        -2.332546         0.086251        -0.200578
 O        -2.856125         0.233609         1.157773
 C        -3.195794         0.893236        -1.179730
 C        -4.767466         0.777085        -1.163858
 O        -4.706588         0.680929        -2.749921
 C        -3.339503         0.301620        -2.627796
 H         1.736015        -1.362740         0.245867
 H         2.311125         0.331336         0.193816
 H         1.742979        -0.353088         1.812550
 H        -2.523807        -0.950430        -0.451354
 H        -2.660854         1.060413         1.595351
 H        -3.059358         1.939878        -1.354537
 H        -5.161297        -0.170449        -0.740163
 H        -5.305346         1.623761        -0.774617
 H        -3.120364        -0.810560        -2.723528
 H        -2.799874         0.840667        -3.412971
