19
Iteration:  1347charge 0 multiplicity 1
 C         1.303546        -0.335666        -0.110332
 C        -0.155428        -0.441445        -0.251471
 C        -1.294818        -0.238799        -0.132011
 C        -2.717127        -0.079939         0.138136
 O        -2.874480         0.507995         1.474490
 C        -3.661573         0.815775        -0.709895
 C        -4.337890        -0.000358        -1.825314
 O        -3.670159         0.775326        -2.843898
 C        -3.123386         1.748414        -1.785042
 H         1.558365         0.624762        -0.727969
 H         1.642223        -0.039130         0.956137
 H         1.904376        -1.156798        -0.562039
 H        -3.100891        -1.144473         0.148698
 H        -2.351163         0.025977         2.130861
 H        -4.346403         1.249187        -0.004145
 H        -4.193956        -1.057700        -1.882621
 H        -5.439323        -0.005000        -1.921648
 H        -2.044181         1.860431        -1.782788
 H        -3.764214         2.664141        -1.865259
