19
Iteration:  4216charge 0 multiplicity 1
 C         1.449706         0.172742         0.620480
 C         0.120811        -0.199942         0.233613
 C        -1.002958        -0.303178        -0.226274
 C        -2.392699        -0.475925        -0.439855
 O        -3.077345        -0.515328         0.852059
 C        -3.006495         0.859665        -1.052272
 C        -4.469522         1.284564        -0.989650
 O        -4.685992         1.159389        -2.428734
 C        -3.252846         0.863196        -2.560130
 H         1.366941         1.031374         1.305853
 H         1.958753        -0.632045         1.159580
 H         1.910051         0.460797        -0.295635
 H        -2.694747        -1.306488        -1.007703
 H        -2.627188        -1.242741         1.293407
 H        -2.192527         1.527066        -0.823813
 H        -5.349402         0.679702        -0.470904
 H        -4.460076         2.309707        -0.600653
 H        -3.033358        -0.167561        -2.898667
 H        -2.740629         1.772649        -3.002353
