19
Iteration:   688
 C         1.308518         0.351075         0.378140
 C        -0.045558        -0.204471        -0.069176
 C        -1.184209        -0.538333        -0.205273
 C        -2.631215        -0.166586        -0.113423
 O        -3.087677         0.032996         1.271204
 C        -2.922716         0.999633        -1.073232
 C        -4.415976         1.282867        -1.312971
 O        -4.477867         0.366684        -2.376807
 C        -2.903055         0.534626        -2.558234
 H         1.668294        -0.086923         1.254273
 H         2.109234         0.262537        -0.422087
 H         1.265054         1.387355         0.687637
 H        -3.257820        -0.987038        -0.365934
 H        -2.850105         0.929984         1.471560
 H        -2.327300         1.895860        -0.752855
 H        -5.063796         0.992513        -0.477182
 H        -4.615738         2.337612        -1.598957
 H        -2.332835        -0.371227        -2.793216
 H        -2.734476         1.263501        -3.385970
