19
Iteration:  3810charge 0 multiplicity 1
 C         1.364339        -0.085818        -0.433982
 C        -0.040958        -0.053134        -0.015985
 C        -1.179011        -0.246288         0.284142
 C        -2.721795        -0.181217         0.174720
 O        -3.443163        -0.007841         1.458969
 C        -3.249802         0.845419        -0.795562
 C        -4.539867         0.452203        -1.542808
 O        -4.017608         1.153291        -2.758797
 C        -2.595673         0.982294        -2.228662
 H         1.642893         0.007171        -1.539749
 H         2.028150         0.656015         0.039170
 H         1.769119        -1.012431        -0.371204
 H        -3.065268        -1.260665        -0.163284
 H        -2.885196        -0.087204         2.270583
 H        -3.361259         1.831966        -0.394470
 H        -4.647484        -0.706482        -1.619662
 H        -5.511344         0.980628        -1.348132
 H        -2.014198         0.081322        -2.634333
 H        -1.749470         1.794416        -2.257789
