19
Iteration:  4928
 C         1.475430        -0.202842         0.637056
 C         0.168801        -0.252054        -0.021255
 C        -1.031978        -0.101208        -0.185740
 C        -2.390337        -0.198269        -0.417778
 O        -3.117387        -0.471785         0.873175
 C        -3.055441         1.161219        -0.892578
 C        -4.598249         0.909407        -1.033486
 O        -4.520187         0.715281        -2.495782
 C        -3.248299         1.393397        -2.468370
 H         1.920111         0.828790         0.499855
 H         1.189056        -0.473941         1.713286
 H         2.090171        -0.862536         0.103992
 H        -2.597379        -1.020772        -1.031191
 H        -2.406272        -0.829457         1.433336
 H        -2.684832         1.969289        -0.340530
 H        -4.895436        -0.059413        -0.545388
 H        -5.136326         1.855271        -0.974916
 H        -2.592833         0.906083        -3.156652
 H        -3.242480         2.417794        -2.694123
