19
Iteration:  2036charge 0 multiplicity 1
 C         1.329903        -0.141571        -0.481285
 C         0.007081        -0.115812         0.102810
 C        -1.176369        -0.036434         0.233520
 C        -2.740116        -0.006276         0.311134
 O        -3.403295         0.404295         1.485566
 C        -3.093543         0.850279        -0.944396
 C        -4.527933         0.683755        -1.415610
 O        -4.086066         0.659303        -2.769760
 C        -2.687277         0.468704        -2.344211
 H         2.220795        -0.555596         0.103501
 H         1.214238        -0.561642        -1.417474
 H         1.679754         0.836721        -0.740577
 H        -2.933264        -1.153153         0.158219
 H        -3.188175         1.316575         1.674828
 H        -2.816846         1.890253        -0.733445
 H        -4.926539        -0.308704        -1.168794
 H        -5.246290         1.493672        -1.213275
 H        -2.213299        -0.544518        -2.467246
 H        -2.018514         1.299265        -2.702265
