19
Iteration:  3544
 C         1.513206        -0.306026         0.686889
 C         0.119155        -0.166218         0.346173
 C        -0.929993         0.178101        -0.069441
 C        -2.298076        -0.078743        -0.345464
 O        -3.017695        -0.293922         0.842055
 C        -3.000312         1.020151        -1.206136
 C        -4.496275         1.199639        -1.098131
 O        -4.786333         0.661260        -2.400975
 C        -3.391396         0.694835        -2.750767
 H         1.904800         0.241540         1.696949
 H         1.763920        -1.362260         0.878719
 H         2.125233         0.242719         0.089410
 H        -2.335237        -1.078294        -0.938135
 H        -2.875684         0.424897         1.510063
 H        -2.478363         1.934564        -0.961325
 H        -4.959086         0.702882        -0.162461
 H        -4.870495         2.256158        -1.104997
 H        -3.067174        -0.238960        -3.086104
 H        -3.262064         1.642907        -3.273274
