19
Iteration:  4245
 C         1.510107         0.156149         0.633710
 C         0.155849        -0.145525         0.182320
 C        -1.002894        -0.305063        -0.147444
 C        -2.423928        -0.419537        -0.383809
 O        -3.177364        -0.584697         0.896232
 C        -2.979340         0.892365        -1.147778
 C        -4.481832         1.170276        -0.922400
 O        -4.651336         1.255121        -2.393911
 C        -3.277589         0.854773        -2.689196
 H         1.505548         1.085807         1.145272
 H         1.857485        -0.472472         1.425620
 H         2.170167         0.079194        -0.332827
 H        -2.712036        -1.382791        -1.028669
 H        -2.497483        -0.950311         1.477055
 H        -2.165627         1.744538        -1.072849
 H        -4.977652         0.358724        -0.626148
 H        -4.718525         2.093026        -0.367286
 H        -3.143235        -0.167874        -3.118618
 H        -2.791247         1.598553        -3.375341
