19
Iteration:  2489charge 0 multiplicity 1
 C         1.469686         0.015584        -0.191043
 C        -0.001199         0.044666         0.084206
 C        -1.224978        -0.047715         0.124536
 C        -2.660014        -0.232834         0.071004
 O        -3.282567        -0.089950         1.337238
 C        -3.195133         0.776996        -0.863327
 C        -4.625878         0.710496        -1.343271
 O        -4.138377         1.001813        -2.721563
 C        -2.754989         0.733639        -2.370111
 H         1.568131        -0.417885        -1.179638
 H         1.864847         0.976229        -0.081829
 H         2.157984        -0.536517         0.535251
 H        -2.990377        -1.152158        -0.247290
 H        -2.778611        -0.729546         1.912469
 H        -2.884079         1.772172        -0.571067
 H        -5.238481        -0.235126        -1.357379
 H        -5.259886         1.589073        -1.079172
 H        -2.288927        -0.347193        -2.692975
 H        -2.222490         1.649151        -2.751660
