19
Iteration:   962charge 0 multiplicity 1
 C         1.178896        -0.186111        -0.170792
 C        -0.260520        -0.245904        -0.329386
 C        -1.489902        -0.314529        -0.239564
 C        -2.834865        -0.030538         0.273515
 O        -2.525048         0.668119         1.485055
 C        -3.836046         0.647946        -0.685841
 C        -4.315199        -0.108921        -1.989230
 O        -3.480539         0.714165        -2.817385
 C        -3.084258         1.608185        -1.614664
 H         1.646965         0.310027         0.671814
 H         1.615174        -1.209666         0.067804
 H         1.845614        -0.106689        -1.055194
 H        -3.298030        -0.932062         0.681819
 H        -3.121637         0.317521         2.148274
 H        -4.691867         1.006799        -0.068382
 H        -4.047864        -1.181669        -2.314306
 H        -5.393354         0.106262        -2.139108
 H        -2.001738         1.640798        -1.458006
 H        -3.437367         2.665244        -1.680379
