19
Iteration:  2242charge 0 multiplicity 1
 C         1.518172        -0.397846         0.568957
 C         0.218209         0.120619         0.151292
 C        -0.957656         0.307598         0.011410
 C        -2.393469        -0.009378        -0.213172
 O        -3.108479        -0.115025         1.032206
 C        -3.047255         1.024497        -1.173370
 C        -4.615765         1.029351        -1.166313
 O        -4.686616         0.697469        -2.566507
 C        -3.228474         0.437659        -2.612054
 H         2.093651         0.259934         1.188959
 H         1.236037        -1.191286         1.268059
 H         2.004805        -0.811643        -0.294716
 H        -2.499486        -0.960669        -0.896772
 H        -2.501333        -0.154157         1.822054
 H        -2.452538         1.926979        -1.074682
 H        -4.979573         0.251470        -0.521259
 H        -5.010095         2.026382        -1.117697
 H        -3.010822        -0.662938        -2.710885
 H        -2.807921         1.016020        -3.448237
