19
Iteration:  2084charge 0 multiplicity 1
 C         1.372113        -0.131731        -0.006452
 C        -0.067527        -0.085869        -0.164451
 C        -1.274376        -0.064123        -0.014985
 C        -2.706541        -0.006008         0.208918
 O        -2.861067         0.409379         1.617388
 C        -3.335584         0.874305        -0.859033
 C        -4.778223         0.697393        -1.574028
 O        -4.086833         0.691828        -2.912120
 C        -2.839390         0.468237        -2.313084
 H         1.561057        -0.243544         1.019614
 H         1.827011        -0.938083        -0.626236
 H         2.120033         0.677935        -0.222292
 H        -3.145877        -1.029640         0.111563
 H        -2.019403         0.418262         2.163847
 H        -3.105102         1.962867        -0.628918
 H        -5.237232        -0.403807        -1.244026
 H        -5.459502         1.543362        -1.590030
 H        -2.468777        -0.608123        -2.426509
 H        -2.062088         1.146118        -2.690879
