19
Iteration:  4662
 C         1.443612         0.168168        -0.054059
 C         0.020815        -0.027210        -0.026975
 C        -1.162081        -0.357094        -0.049072
 C        -2.643154        -0.482366        -0.040454
 O        -3.119655        -0.499124         1.331365
 C        -3.341508         0.844444        -0.704160
 C        -4.689948         0.799351        -1.538696
 O        -4.111109         1.369353        -2.658220
 C        -2.773234         1.088655        -2.173830
 H         1.937486        -0.532409         0.591683
 H         1.837646         0.169008        -1.052784
 H         1.672084         1.206943         0.372658
 H        -2.935935        -1.409343        -0.632903
 H        -3.420704        -1.425069         1.530530
 H        -3.140576         1.627477        -0.073251
 H        -5.055544        -0.427940        -1.720765
 H        -5.632816         1.343011        -1.194048
 H        -2.364577         0.201278        -2.726442
 H        -2.164687         2.081498        -2.337665
