19
Iteration:  1491
 C         1.394714         0.065535        -0.353853
 C         0.014001        -0.065593         0.128450
 C        -1.206999        -0.192846         0.324524
 C        -2.654551        -0.211939         0.111561
 O        -3.411553        -0.090296         1.377560
 C        -3.109052         0.890246        -0.911732
 C        -4.573721         0.736123        -1.384633
 O        -4.115423         0.980027        -2.771467
 C        -2.699681         0.704075        -2.333325
 H         1.459916         0.273264        -1.435483
 H         2.036842         0.835878         0.329286
 H         1.844307        -0.964629        -0.264250
 H        -2.955814        -1.170529        -0.265159
 H        -3.173297         0.744383         1.812319
 H        -2.672840         1.820832        -0.520566
 H        -5.025377        -0.251941        -1.188622
 H        -5.453046         1.377496        -1.142295
 H        -2.316385        -0.270607        -2.614801
 H        -2.006519         1.421840        -2.893843
