19
Iteration:  4802charge 0 multiplicity 1
 C         1.630036         0.016616         0.481774
 C         0.177566        -0.110239         0.217817
 C        -0.994480        -0.309153        -0.073277
 C        -2.466167        -0.281625        -0.333640
 O        -3.206795        -0.685300         0.826274
 C        -3.038278         1.049488        -0.981020
 C        -4.621492         1.075307        -1.065917
 O        -4.647495         1.083884        -2.499962
 C        -3.079697         1.059651        -2.513241
 H         1.846150         0.422160         1.438649
 H         1.985787        -0.980669         0.382822
 H         2.131467         0.564376        -0.406024
 H        -2.664087        -1.064421        -0.989529
 H        -3.178651         0.069281         1.471284
 H        -2.557300         1.937233        -0.389123
 H        -5.095051         0.129476        -0.474919
 H        -5.173968         1.811471        -0.542538
 H        -2.968969         0.056986        -2.997125
 H        -2.668177         1.821114        -3.041178
