19
Iteration:  1831
 C         1.492993        -0.168575         0.166195
 C         0.077922        -0.375105         0.227748
 C        -1.144817        -0.181579         0.078285
 C        -2.586593        -0.004819         0.030941
 O        -2.968362         0.652848         1.285214
 C        -3.160127         0.849742        -1.029843
 C        -4.625034         0.664283        -1.328501
 O        -4.444024         0.534866        -2.758674
 C        -2.969487         0.760907        -2.618839
 H         2.129066        -1.005823        -0.207119
 H         1.545853         0.804100        -0.447775
 H         1.886452         0.111688         1.168041
 H        -3.105302        -1.069222        -0.144946
 H        -2.937506        -0.007787         1.992262
 H        -3.001988         1.934909        -0.763512
 H        -5.100981        -0.258660        -1.016208
 H        -5.321253         1.454265        -0.913893
 H        -2.425294        -0.091915        -2.967682
 H        -2.798657         1.751451        -2.964320
