19
Iteration:  4576charge 0 multiplicity 1
 C         1.414223         0.070413        -0.403717
 C         0.007005        -0.057070        -0.038148
 C        -1.183926        -0.244624         0.166036
 C        -2.694305        -0.283546         0.058214
 O        -3.428072        -0.717239         1.192511
 C        -3.372202         1.059562        -0.616202
 C        -4.600532         0.633200        -1.456058
 O        -3.826949         0.926914        -2.751178
 C        -2.734197         1.508530        -1.977751
 H         1.818201        -0.900459        -0.747506
 H         1.470097         0.641831        -1.345337
 H         2.102807         0.427999         0.377903
 H        -2.845177        -1.170616        -0.671528
 H        -3.360617        -0.051613         1.924081
 H        -3.247871         1.924996         0.066414
 H        -4.895259        -0.275551        -1.399319
 H        -5.462753         1.317341        -1.252535
 H        -1.751191         1.050674        -2.079359
 H        -2.491147         2.579641        -2.244794
