19
Iteration:   505
 C         1.610034        -0.237003         0.640271
 C         0.221207         0.031582         0.043847
 C        -0.995385         0.073890        -0.159661
 C        -2.473698        -0.084092        -0.040990
 O        -2.897867         0.353504         1.274684
 C        -3.191578         0.784770        -1.161677
 C        -4.709786         0.781688        -1.247824
 O        -4.670156         0.663635        -2.708680
 C        -3.207568         0.464458        -2.704816
 H         2.099460        -1.164836         0.344069
 H         2.391172         0.657284         0.474530
 H         1.378423        -0.296154         1.750358
 H        -2.706952        -1.161041        -0.038832
 H        -2.876016         1.333737         1.440585
 H        -2.896232         1.770673        -1.054950
 H        -5.133464        -0.139007        -0.797279
 H        -5.241736         1.677429        -0.873620
 H        -2.945045        -0.646308        -2.791324
 H        -2.735051         1.076262        -3.476243
