19
Iteration:  1657
 C         1.519187         0.009999         0.782313
 C         0.195709        -0.263081         0.276436
 C        -0.934374        -0.081562        -0.160161
 C        -2.439386        -0.140216        -0.348725
 O        -3.087499         0.092362         0.971843
 C        -2.946366         0.904158        -1.299059
 C        -4.452435         1.108598        -1.104571
 O        -4.764167         0.597264        -2.343972
 C        -3.382634         0.544948        -2.807027
 H         2.282671        -0.304466         0.148628
 H         1.591267         1.075907         1.131837
 H         1.642355        -0.684653         1.608859
 H        -2.692222        -1.215548        -0.546623
 H        -2.640055         0.756225         1.475782
 H        -2.230631         1.761263        -1.296606
 H        -4.934764         0.524955        -0.291872
 H        -4.603372         2.265116        -0.965917
 H        -3.153486        -0.348103        -3.310854
 H        -3.076797         1.287905        -3.601155
