19
Iteration:  1671
 C         1.593780        -0.173029         0.854675
 C         0.233135        -0.157450         0.281792
 C        -0.909138        -0.029198        -0.185293
 C        -2.347985        -0.076731        -0.311530
 O        -3.072544         0.056183         0.959752
 C        -2.991726         0.974729        -1.343347
 C        -4.514093         1.128800        -1.076861
 O        -4.842397         0.586912        -2.485562
 C        -3.411591         0.495267        -2.724497
 H         2.363886        -0.319008         0.127322
 H         1.874944         0.909601         1.122477
 H         1.691033        -0.672551         1.826226
 H        -2.635756        -0.971569        -0.694599
 H        -2.518014         0.750645         1.422628
 H        -2.540548         1.964485        -1.255870
 H        -4.860451         0.511066        -0.253622
 H        -5.070754         2.055292        -0.955532
 H        -3.047730        -0.545164        -2.871656
 H        -3.171652         1.226520        -3.531609
