19
Iteration:   393
 C         1.363891         0.108004        -0.386821
 C        -0.065039         0.045011        -0.080063
 C        -1.248227        -0.208132         0.151747
 C        -2.701112        -0.120732         0.298556
 O        -3.335754         0.317680         1.515722
 C        -3.127017         0.835369        -0.837066
 C        -4.532500         1.016480        -1.472318
 O        -4.049193         0.495241        -2.761710
 C        -2.712870         0.356102        -2.325609
 H         1.462281        -0.176522        -1.436046
 H         1.923768         1.145915        -0.229763
 H         2.016614        -0.468310         0.298881
 H        -3.113328        -1.101422         0.051564
 H        -3.227149        -0.368842         2.211746
 H        -2.716637         1.780645        -0.599384
 H        -5.463676         0.590343        -1.073753
 H        -4.709608         2.131885        -1.613600
 H        -2.497900        -0.741120        -2.535039
 H        -1.955765         0.973566        -2.834684
