19
Iteration:   764
 C         1.410920         0.199535        -0.391909
 C         0.044069        -0.102311         0.154582
 C        -1.142119        -0.213812         0.282626
 C        -2.724146        -0.183479         0.165078
 O        -3.381837         0.046121         1.447959
 C        -3.198081         0.945887        -0.875133
 C        -4.577155         0.940220        -1.468716
 O        -4.125299         0.724706        -2.827250
 C        -2.696600         0.531267        -2.325482
 H         2.196843         0.019652         0.386500
 H         1.730590        -0.564649        -1.157744
 H         1.610243         1.209055        -0.752124
 H        -2.998256        -1.171088        -0.119420
 H        -2.856094        -0.659795         1.922604
 H        -2.867290         1.950718        -0.470024
 H        -5.206578         0.151152        -1.059932
 H        -5.165505         1.826389        -1.388259
 H        -2.512560        -0.526310        -2.469654
 H        -1.938661         1.183860        -2.831326
