19
Iteration:   388charge 0 multiplicity 1
 C         1.356238         0.107792        -0.380882
 C        -0.092383         0.073404        -0.142233
 C        -1.248167        -0.159362         0.156939
 C        -2.709575        -0.171282         0.257331
 O        -3.374858         0.324836         1.533346
 C        -3.084337         0.848936        -0.822862
 C        -4.510453         1.029757        -1.474936
 O        -4.032196         0.484241        -2.770304
 C        -2.692944         0.346122        -2.267337
 H         1.407290        -0.169719        -1.498763
 H         1.861397         0.999620        -0.338701
 H         2.011184        -0.586644         0.177469
 H        -3.044770        -1.216863        -0.003514
 H        -3.340161        -0.363963         2.194732
 H        -2.767390         1.912751        -0.394853
 H        -5.370822         0.480080        -1.036019
 H        -4.687595         2.085550        -1.533640
 H        -2.563464        -0.725595        -2.299631
 H        -1.927761         0.896378        -2.903525
