19
Iteration:  1086
 C         0.904021        -0.799093        -0.941982
 C        -0.267089        -0.349901        -0.246457
 C        -1.424944        -0.024185         0.134239
 C        -2.823775         0.016173         0.476866
 O        -3.080906         1.142189         1.434517
 C        -3.774254         0.240799        -0.681684
 C        -3.248980        -0.284346        -2.076451
 O        -3.239111         1.103637        -2.624883
 C        -3.568350         1.662670        -1.360721
 H         1.790053        -0.219871        -1.030220
 H         1.422839        -1.866767        -0.662072
 H         0.673367        -0.874780        -2.029434
 H        -3.078440        -0.899045         0.973538
 H        -3.957929         1.012896         1.824998
 H        -4.741068        -0.100242        -0.350531
 H        -2.241048        -0.840828        -1.956879
 H        -3.937667        -0.995767        -2.539317
 H        -2.639477         2.139567        -0.967075
 H        -4.409146         2.374026        -1.374344
