19
Iteration:  1027
 C         1.187927        -0.397787        -0.493117
 C        -0.262355        -0.479039        -0.402014
 C        -1.481986        -0.373560        -0.060539
 C        -2.868267        -0.077367         0.396710
 O        -2.679552         0.961533         1.467853
 C        -3.914169         0.498235        -0.642833
 C        -3.851119        -0.233393        -2.062983
 O        -3.167317         0.908514        -2.714158
 C        -3.521671         1.779050        -1.484267
 H         1.573608         0.476126         0.179886
 H         1.466663        -1.403728        -0.103814
 H         1.498662        -0.446814        -1.579451
 H        -3.332753        -0.963151         0.815338
 H        -3.666748         1.170551         1.550970
 H        -4.909927         0.640836        -0.153134
 H        -3.162451        -1.143667        -1.880028
 H        -4.878035        -0.489350        -2.535581
 H        -2.684708         2.436466        -1.176968
 H        -4.476721         2.389841        -1.710820
