19
Iteration:  2140
 C         1.490356        -0.075941         0.423638
 C         0.033017        -0.248355         0.008050
 C        -1.146043        -0.355194        -0.117721
 C        -2.598426        -0.050353        -0.023509
 O        -2.779992         0.565730         1.261858
 C        -3.245530         0.916754        -0.999868
 C        -4.721441         0.621596        -1.344102
 O        -4.462278         0.678795        -2.779606
 C        -2.985598         0.741574        -2.499290
 H         1.605393         0.173563         1.419082
 H         1.983524        -1.121288         0.328148
 H         2.023331         0.671049        -0.216940
 H        -3.125766        -1.120963        -0.096455
 H        -2.501319        -0.012579         1.969105
 H        -3.077267         1.853078        -0.413580
 H        -5.192648        -0.296170        -1.018895
 H        -5.544286         1.222236        -0.981167
 H        -2.500378        -0.273466        -2.697061
 H        -2.419939         1.563482        -2.915554
