19
Iteration:   692
 C         1.260449         0.360446         0.329253
 C        -0.042851        -0.161507        -0.084001
 C        -1.194444        -0.557585        -0.183773
 C        -2.591360        -0.164807        -0.090224
 O        -3.108594         0.023922         1.298733
 C        -2.946599         0.992482        -1.047995
 C        -4.373013         1.259195        -1.326865
 O        -4.433686         0.377374        -2.387552
 C        -2.908506         0.546740        -2.578462
 H         1.627595        -0.261930         1.191964
 H         2.106474         0.160919        -0.399622
 H         1.307113         1.436021         0.607531
 H        -3.410735        -0.933621        -0.377244
 H        -2.901180         0.992124         1.499976
 H        -2.436396         1.860384        -0.717457
 H        -5.093398         0.985311        -0.504818
 H        -4.583777         2.359109        -1.539671
 H        -2.444196        -0.468574        -2.745849
 H        -2.655097         1.276288        -3.331525
