19
Iteration:   654
 C         1.373133         0.210172         0.587825
 C         0.041938        -0.272042         0.211227
 C        -1.098936        -0.249549        -0.219204
 C        -2.491717        -0.126465        -0.277621
 O        -2.987752         0.108897         1.063767
 C        -2.978686         1.012740        -1.186862
 C        -4.471052         1.212307        -1.226977
 O        -4.644634         0.359155        -2.309614
 C        -3.111063         0.498773        -2.671476
 H         1.888198        -0.515561         1.234965
 H         1.987599         0.235196        -0.297048
 H         1.282397         1.238701         0.942520
 H        -2.752940        -1.077436        -0.644956
 H        -2.285418         0.254432         1.712523
 H        -2.418563         1.960670        -0.872369
 H        -5.134052         1.020115        -0.383657
 H        -4.607571         2.276759        -1.505832
 H        -2.635383        -0.444446        -2.894408
 H        -3.091836         1.267235        -3.486936
