19
Iteration:  1147charge 0 multiplicity 1
 C         0.646740        -0.959527        -1.149280
 C        -0.415951        -0.298954        -0.313202
 C        -1.365141         0.059899         0.447612
 C        -2.806167         0.156773         0.623950
 O        -3.313129         1.101715         1.560682
 C        -3.517010         0.219780        -0.762775
 C        -2.871887        -0.257693        -2.175145
 O        -3.300366         1.054678        -2.679343
 C        -3.559595         1.616000        -1.395816
 H         1.293180        -0.027772        -1.300134
 H         1.118590        -1.798004        -0.809212
 H         0.084271        -1.198092        -2.082847
 H        -2.987973        -0.920837         1.023457
 H        -2.758873         1.211910         2.332270
 H        -4.489485        -0.292707        -0.542633
 H        -1.821514        -0.295635        -2.177774
 H        -3.332056        -1.022313        -2.823616
 H        -2.809596         2.379754        -1.187576
 H        -4.502530         2.228772        -1.342261
