19
Iteration:  2412charge 0 multiplicity 1
 C         1.384594         0.248361         0.274570
 C        -0.025075        -0.120510         0.188533
 C        -1.163986        -0.302952        -0.216699
 C        -2.585684        -0.373425        -0.055353
 O        -2.929758        -0.028603         1.333290
 C        -3.133720         0.732717        -0.997564
 C        -4.558585         1.042708        -1.297815
 O        -4.349729         1.115721        -2.702642
 C        -3.070499         0.484085        -2.525764
 H         1.785799         0.641618        -0.680998
 H         1.461088         1.008937         0.995603
 H         2.094356        -0.507645         0.735365
 H        -3.094037        -1.389207        -0.150432
 H        -2.195221        -0.438126         1.812275
 H        -2.672982         1.663488        -0.632123
 H        -5.325427         0.184436        -1.231239
 H        -5.159778         1.930424        -0.951476
 H        -3.115456        -0.556505        -2.819084
 H        -2.183702         0.702773        -3.135767
