19
Iteration:  3035
 C         1.557233        -0.265948         0.296388
 C         0.138435        -0.052438         0.355867
 C        -1.040189         0.030373         0.140108
 C        -2.448341        -0.095098        -0.262439
 O        -3.189462        -0.187331         0.947376
 C        -3.029219         0.997922        -1.125609
 C        -4.604251         0.835429        -1.120202
 O        -4.580956         0.748362        -2.555951
 C        -3.130309         0.951785        -2.589225
 H         1.975406         0.623528        -0.401760
 H         2.004159        -0.154490         1.267000
 H         1.823783        -1.232120        -0.073257
 H        -2.597966        -1.040943        -0.694334
 H        -2.608772        -0.207191         1.754023
 H        -2.555079         1.930685        -0.626474
 H        -4.839965        -0.120841        -0.608017
 H        -5.296235         1.558226        -0.644491
 H        -2.573572         0.043497        -2.968066
 H        -3.050098         1.956083        -3.137703
