19
Iteration:  2656
 C         1.384600        -0.141768        -0.023084
 C        -0.037325        -0.242222        -0.070243
 C        -1.252696        -0.165008        -0.173841
 C        -2.701837        -0.087358        -0.007667
 O        -3.053350        -0.091967         1.397607
 C        -3.378074         1.058078        -0.744940
 C        -4.707343         0.642336        -1.459658
 O        -3.910158         0.505668        -2.755185
 C        -2.852629         1.356826        -2.143099
 H         1.878248        -0.992736         0.392337
 H         1.748281         0.024216        -1.068972
 H         1.728293         0.895614         0.451907
 H        -3.021706        -1.115264        -0.422053
 H        -2.255304         0.248005         1.886310
 H        -3.409385         1.947132        -0.135354
 H        -5.214645        -0.352929        -1.289845
 H        -5.393681         1.497515        -1.506691
 H        -1.859868         0.911888        -2.404905
 H        -2.945973         2.406876        -2.237573
