19
Iteration:  1038
 C         1.102233        -0.504486        -0.607304
 C        -0.302480        -0.435097        -0.392087
 C        -1.438573        -0.296313         0.091623
 C        -2.829405        -0.020851         0.476398
 O        -2.718891         0.943782         1.453030
 C        -3.936916         0.444521        -0.731599
 C        -3.731982        -0.216273        -2.105977
 O        -3.188087         0.941996        -2.669080
 C        -3.560152         1.739009        -1.481523
 H         1.656385         0.295196         0.031877
 H         1.534214        -1.358923        -0.114105
 H         1.602479        -0.452364        -1.622720
 H        -3.218565        -0.954718         0.895049
 H        -3.485873         1.496067         1.654855
 H        -4.939197         0.344355        -0.257949
 H        -3.055081        -1.153542        -2.134487
 H        -4.696841        -0.528154        -2.671742
 H        -2.723712         2.378234        -1.129152
 H        -4.463267         2.418324        -1.708486
