19
Iteration:  4062charge 0 multiplicity 1
 C         1.594089        -0.321911         0.136348
 C         0.091784        -0.094702         0.022080
 C        -1.109286         0.068640        -0.021787
 C        -2.571115        -0.082054        -0.162402
 O        -3.249649        -0.344385         1.103141
 C        -3.262235         1.080125        -0.791238
 C        -4.750082         0.759843        -1.255363
 O        -4.248648         0.723510        -2.684974
 C        -2.891940         1.268330        -2.271691
 H         1.802675        -1.096844         0.892374
 H         1.972092        -0.624852        -0.840044
 H         2.222853         0.580894         0.445043
 H        -2.715081        -1.097726        -0.826762
 H        -2.698684        -0.976648         1.620913
 H        -3.315318         1.895317        -0.097714
 H        -5.007928        -0.307931        -0.985862
 H        -5.359733         1.629658        -1.047583
 H        -2.013144         0.706430        -2.562671
 H        -2.848559         2.243822        -2.691238
