19
Iteration:  1092charge 0 multiplicity 1
 C         0.901931        -0.830592        -0.996408
 C        -0.311787        -0.364038        -0.256694
 C        -1.342249        -0.001043         0.209247
 C        -2.834181         0.045348         0.422394
 O        -3.134051         1.149420         1.420611
 C        -3.763076         0.256854        -0.719286
 C        -3.187393        -0.295283        -2.024669
 O        -3.252000         1.081520        -2.645231
 C        -3.560516         1.657232        -1.280869
 H         1.812042        -0.151382        -1.134207
 H         1.112703        -1.744876        -0.581320
 H         0.642638        -0.942775        -2.065230
 H        -3.083717        -0.947796         0.913255
 H        -3.915951         1.025186         1.953691
 H        -4.757368        -0.140381        -0.390979
 H        -2.190221        -0.722184        -1.931840
 H        -3.851004        -0.938681        -2.657464
 H        -2.639377         2.139189        -0.959670
 H        -4.464374         2.313379        -1.308558
