19
Iteration:  3495charge 0 multiplicity 1
 C         1.586654        -0.176919         0.653060
 C         0.228962        -0.071969         0.274845
 C        -0.934635        -0.183507        -0.053258
 C        -2.396065        -0.162548        -0.338009
 O        -3.187104        -0.086061         0.892529
 C        -2.992350         0.988624        -1.168836
 C        -4.563340         1.088582        -1.083972
 O        -4.736103         0.755208        -2.475971
 C        -3.292383         0.720125        -2.684891
 H         1.776270        -0.124338         1.647306
 H         2.022359        -1.134150         0.281197
 H         2.275787         0.699463         0.311696
 H        -2.659142        -1.005750        -0.857603
 H        -2.545270        -0.164934         1.608619
 H        -2.396810         1.955847        -0.994525
 H        -5.213981         0.528215        -0.429416
 H        -4.751251         2.122954        -0.747370
 H        -3.051373        -0.374570        -2.802056
 H        -3.055244         1.516439        -3.406559
