19
Iteration:  1011
 C         1.144616        -0.376527        -0.392843
 C        -0.281879        -0.433052        -0.317297
 C        -1.557775        -0.416484        -0.276503
 C        -2.810823        -0.010940         0.317299
 O        -2.687547         0.893611         1.410020
 C        -3.809321         0.550844        -0.672173
 C        -3.926769        -0.206077        -1.955835
 O        -3.239428         0.872256        -2.621692
 C        -3.425417         1.705535        -1.557486
 H         1.419001         0.456197         0.241915
 H         1.902277        -1.093881        -0.022594
 H         1.543800        -0.203944        -1.372676
 H        -3.254044        -1.016516         0.675405
 H        -3.471143         1.081606         1.966035
 H        -4.732120         0.593794        -0.093770
 H        -3.485811        -1.159124        -2.105338
 H        -4.969449        -0.236410        -2.242860
 H        -2.561648         2.315231        -1.260763
 H        -4.219259         2.426066        -1.668036
