19
Iteration:  3445
 C         1.445255         0.005337         0.469913
 C         0.116467        -0.158081         0.025442
 C        -1.087907        -0.295966        -0.169384
 C        -2.547884        -0.212494        -0.135417
 O        -3.021407        -0.054278         1.250683
 C        -3.085447         0.960109        -1.031443
 C        -4.582121         1.087449        -1.209516
 O        -4.517903         0.889841        -2.671192
 C        -3.056736         0.662979        -2.575615
 H         1.512003        -0.289577         1.660246
 H         2.240879        -0.550795        -0.085061
 H         1.828192         1.015528         0.496347
 H        -3.005478        -1.141407        -0.708393
 H        -3.036936        -0.944042         1.609884
 H        -2.512411         1.844413        -0.848278
 H        -5.078406         0.258086        -0.604539
 H        -5.071455         1.951207        -0.744316
 H        -2.892657        -0.357893        -2.892464
 H        -2.490058         1.415887        -3.177772
