19
Iteration:   336charge 0 multiplicity 1
 C         1.169207         0.005171        -0.792715
 C        -0.108318        -0.032850        -0.008361
 C        -1.237191         0.042939         0.501474
 C        -2.747871        -0.016622         0.365572
 O        -3.544961         0.237653         1.503453
 C        -3.006805         0.997530        -0.821612
 C        -4.419424         0.824797        -1.499955
 O        -3.929293         0.464820        -2.814817
 C        -2.554008         0.438992        -2.210827
 H         1.255265         0.154356        -1.945479
 H         1.779150         0.854186        -0.348152
 H         1.672905        -0.973709        -0.675340
 H        -2.922962        -1.000806        -0.073323
 H        -3.406418        -0.413060         2.201420
 H        -2.657485         2.047260        -0.618907
 H        -4.790306        -0.022516        -0.909963
 H        -5.127660         1.694833        -1.533981
 H        -2.263419        -0.644155        -2.238948
 H        -1.814508         1.107812        -2.785940
