19
Iteration:  1021charge 0 multiplicity 1
 C         1.208128        -0.388033        -0.436140
 C        -0.298385        -0.471775        -0.386575
 C        -1.494417        -0.404062        -0.150714
 C        -2.864796        -0.080896         0.339776
 O        -2.685464         0.955826         1.463357
 C        -3.861271         0.531689        -0.631627
 C        -3.910431        -0.237775        -1.989460
 O        -3.173325         0.909420        -2.696755
 C        -3.506258         1.756650        -1.511610
 H         1.565547         0.472347         0.025589
 H         1.625157        -1.371187        -0.020288
 H         1.471572        -0.187237        -1.471406
 H        -3.355601        -0.975974         0.817076
 H        -3.604847         1.135799         1.688959
 H        -4.818932         0.670983        -0.136461
 H        -3.244777        -1.086601        -2.101061
 H        -4.832432        -0.457515        -2.450538
 H        -2.639092         2.332837        -1.184469
 H        -4.361640         2.333086        -1.759656
