19
Iteration:   568
 C         1.553284        -0.378063         0.770803
 C         0.265809         0.091292         0.311824
 C        -0.837167         0.365258        -0.062685
 C        -2.226160         0.162215        -0.228697
 O        -3.004710         0.144449         0.987326
 C        -3.150048         0.949799        -1.385684
 C        -4.597791         0.858302        -1.053821
 O        -4.843564         0.558916        -2.608371
 C        -3.462456         0.340908        -2.726755
 H         1.642296        -1.403504         0.844108
 H         2.407453         0.042702         0.144703
 H         1.699127        -0.073620         1.810553
 H        -2.237457        -0.934006        -0.567329
 H        -2.288469         0.094103         1.693225
 H        -2.655463         1.941076        -1.391610
 H        -4.847960        -0.105765        -0.614505
 H        -5.192875         1.736700        -0.691174
 H        -3.217549        -0.735904        -2.663897
 H        -3.008396         0.682068        -3.666248
