19
Iteration:   519charge 0 multiplicity 1
 C         1.514833        -0.259324         0.669826
 C         0.250300         0.031496         0.215371
 C        -0.864366         0.154302        -0.236964
 C        -2.332710         0.081864        -0.111750
 O        -2.907044         0.266809         1.246077
 C        -3.150619         0.822562        -1.157151
 C        -4.751747         0.756552        -1.271645
 O        -4.734644         0.682037        -2.720939
 C        -3.300396         0.350856        -2.623336
 H         1.777890        -1.306831         0.258278
 H         2.218465         0.434742         0.324910
 H         1.597457        -0.367955         1.755796
 H        -2.600911        -0.950890        -0.299575
 H        -2.697156         1.191844         1.338120
 H        -2.750003         1.866232        -1.073352
 H        -5.214547        -0.145971        -0.812639
 H        -5.280725         1.646750        -1.006646
 H        -3.181566        -0.655293        -2.981893
 H        -2.700436         1.013587        -3.249782
