19
Iteration:  3607charge 0 multiplicity 1
 C         1.464817        -0.188918         0.733174
 C         0.092456        -0.089071         0.207902
 C        -1.026237        -0.080124        -0.258330
 C        -2.484987        -0.108323        -0.412355
 O        -3.042826        -0.263023         0.915020
 C        -3.011097         1.111542        -1.117676
 C        -4.503680         1.204371        -1.066144
 O        -4.619966         0.569974        -2.381229
 C        -3.226476         0.782921        -2.622961
 H         1.668470         0.657483         1.316810
 H         1.590647        -1.138679         1.230096
 H         2.138713        -0.414910        -0.148180
 H        -2.753837        -0.998525        -0.959321
 H        -2.371212         0.191885         1.501718
 H        -2.293466         1.985492        -0.964858
 H        -4.905049         0.692887        -0.129079
 H        -4.920692         2.210536        -1.029115
 H        -2.729822        -0.178058        -3.084109
 H        -3.199376         1.636291        -3.370957
