19
Iteration:  1439
 C         1.361715        -0.295053        -0.382806
 C        -0.056494        -0.061303        -0.034387
 C        -1.249477         0.181403         0.183915
 C        -2.678083        -0.102477         0.235407
 O        -3.343060         0.037413         1.492299
 C        -3.344213         0.749579        -0.808763
 C        -4.460873         0.287742        -1.619133
 O        -3.978716         0.982768        -2.767781
 C        -2.668652         1.096522        -2.205676
 H         1.521548         0.258702        -1.276383
 H         1.944845         0.294403         0.405971
 H         1.598947        -1.368526        -0.370019
 H        -2.704215        -1.181371        -0.095533
 H        -2.781238         0.414495         2.199329
 H        -3.445096         1.722718        -0.247527
 H        -4.696151        -0.767944        -1.830031
 H        -5.433878         0.640575        -1.275693
 H        -1.972575         0.367884        -2.699701
 H        -2.444033         2.188810        -2.342223
