19
Iteration:  3703
 C         1.464242        -0.030487         0.217020
 C         0.062835        -0.176264         0.038074
 C        -1.146045        -0.123285        -0.118791
 C        -2.620707        -0.245675        -0.114099
 O        -3.193894        -0.056383         1.221034
 C        -3.124680         0.930874        -0.948946
 C        -4.592029         0.938993        -1.212685
 O        -4.330052         0.825850        -2.637324
 C        -2.851592         0.855839        -2.462698
 H         1.652110         0.967016        -0.134420
 H         1.687850        -0.234781         1.272828
 H         1.926624        -0.962611        -0.249351
 H        -2.955069        -1.233147        -0.539752
 H        -2.985613        -0.866660         1.754390
 H        -2.783203         1.785035        -0.338394
 H        -5.139733         0.104841        -0.911505
 H        -5.259993         1.786424        -0.905272
 H        -2.347648        -0.055080        -2.685593
 H        -2.431102         1.760031        -2.908993
