19
Iteration:  2425
 C         1.379250         0.206695         0.263430
 C         0.000803        -0.100655         0.030881
 C        -1.189615        -0.154062        -0.201774
 C        -2.653856        -0.292946         0.013015
 O        -2.944059        -0.106489         1.380268
 C        -3.167433         0.732637        -0.944063
 C        -4.670122         0.987939        -1.325695
 O        -4.221794         1.162219        -2.756469
 C        -3.021042         0.384560        -2.461132
 H         1.824557         0.452766        -0.660216
 H         1.454390         1.185266         0.815703
 H         1.961567        -0.679496         0.668428
 H        -2.911121        -1.345965        -0.456114
 H        -2.250977        -0.506035         1.943185
 H        -2.642611         1.671424        -0.798639
 H        -5.288165         0.096673        -1.013944
 H        -4.980583         1.964211        -0.920644
 H        -3.161101        -0.639618        -2.626958
 H        -2.200538         0.905436        -2.956603
