19
Iteration:   789
 C         1.304367         0.021541        -0.434055
 C        -0.023067        -0.076287         0.021793
 C        -1.185007         0.061825         0.362009
 C        -2.599893        -0.107291         0.273867
 O        -3.370125         0.058583         1.441950
 C        -3.161337         0.864739        -0.857351
 C        -4.575042         0.665574        -1.506526
 O        -4.052995         0.877705        -2.823192
 C        -2.676436         0.600042        -2.261150
 H         2.025563        -0.025008         0.289898
 H         1.583809        -0.842625        -1.120178
 H         1.467321         0.949949        -0.999546
 H        -2.695469        -1.107108        -0.048785
 H        -3.581199        -0.880109         1.713030
 H        -2.977409         1.897178        -0.660923
 H        -4.950040        -0.367534        -1.392361
 H        -5.403633         1.326830        -1.225995
 H        -2.475671        -0.442522        -2.552225
 H        -1.937323         1.322160        -2.597013
