19
Iteration:  4644
 C         1.476492         0.199293        -0.133569
 C         0.006823        -0.038099        -0.041354
 C        -1.193130        -0.369314        -0.023439
 C        -2.701284        -0.383462        -0.017426
 O        -3.236422        -0.497861         1.312181
 C        -3.279328         0.772761        -0.765067
 C        -4.695214         0.723635        -1.462504
 O        -4.047034         1.285910        -2.723798
 C        -2.730011         1.208027        -2.063972
 H         2.099987        -0.684040         0.251134
 H         1.759194         0.209783        -1.246484
 H         1.880555         1.024491         0.365509
 H        -2.988100        -1.288522        -0.536919
 H        -3.157815        -1.441338         1.596152
 H        -3.543538         1.595753         0.001721
 H        -5.127556        -0.196013        -1.666647
 H        -5.487418         1.355472        -0.992923
 H        -2.066178         0.446263        -2.475322
 H        -2.156016         2.176977        -2.146032
