19
Iteration:   837
 C         1.266990        -0.285484        -0.529419
 C        -0.069117         0.241520        -0.114993
 C        -1.144187         0.060083         0.325371
 C        -2.622909        -0.148043         0.252432
 O        -3.353346         0.250164         1.585125
 C        -3.320200         0.657281        -0.762749
 C        -4.451817         0.231593        -1.605509
 O        -3.994259         0.989948        -2.833957
 C        -2.613180         0.982143        -2.165982
 H         1.935545        -0.081124         0.448058
 H         1.271134        -1.300087        -0.571223
 H         1.938323         0.177549        -1.245787
 H        -2.704317        -1.243574         0.000209
 H        -4.123769        -0.280469         1.609191
 H        -3.639744         1.647935        -0.376893
 H        -4.429646        -0.866640        -1.895860
 H        -5.561173         0.354885        -1.280998
 H        -2.134522         0.074276        -2.591231
 H        -2.241703         1.993942        -2.414851
