19
Iteration:  3459charge 0 multiplicity 1
 C         1.461923        -0.055183         0.564250
 C         0.152837        -0.150789         0.007019
 C        -1.055468        -0.141618        -0.159243
 C        -2.465167        -0.220501        -0.177179
 O        -3.106294        -0.050001         1.171790
 C        -2.995997         0.857422        -1.092389
 C        -4.548648         1.064838        -1.141075
 O        -4.596820         0.876768        -2.581125
 C        -3.150899         0.704293        -2.628259
 H         1.365175        -0.350920         1.659246
 H         2.193178        -0.766546         0.089694
 H         1.850180         1.014386         0.371428
 H        -2.738890        -1.213808        -0.400782
 H        -2.997558        -0.906908         1.637833
 H        -2.591950         1.753364        -0.720315
 H        -5.246006         0.406623        -0.672607
 H        -4.727798         2.151337        -1.114115
 H        -2.722687        -0.248595        -3.024783
 H        -2.636759         1.393321        -3.287135
