19
Iteration:  1905
 C         1.273430        -0.025101        -0.302991
 C        -0.181580        -0.091462        -0.245572
 C        -1.399495        -0.153311         0.024629
 C        -2.784076        -0.021643         0.303749
 O        -3.154852         0.379964         1.677699
 C        -3.194248         0.927968        -0.826516
 C        -4.493745         0.975972        -1.593711
 O        -3.965672         0.368331        -2.787532
 C        -2.632253         0.466231        -2.231802
 H         1.895937        -1.035851        -0.424830
 H         1.528975         0.386389        -1.266277
 H         1.572232         0.687950         0.462533
 H        -3.164331        -1.001232         0.127244
 H        -2.448708        -0.025790         2.204782
 H        -2.797038         1.912848        -0.527201
 H        -5.497448         0.680485        -1.098840
 H        -4.808019         1.954316        -1.890865
 H        -2.170178        -0.564002        -2.174407
 H        -1.953659         1.242135        -2.704287
