19
Iteration:  1341
 C         1.351683        -0.333393        -0.112783
 C        -0.087491        -0.436220        -0.276417
 C        -1.342443        -0.335051        -0.167599
 C        -2.761471        -0.052668         0.163223
 O        -2.854798         0.568083         1.502645
 C        -3.699222         0.810429        -0.738167
 C        -4.357605        -0.001475        -1.850752
 O        -3.646096         0.785936        -2.837237
 C        -3.148981         1.734720        -1.752613
 H         1.466010         0.600421        -0.598762
 H         1.569012        -0.109364         0.918889
 H         1.942651        -1.149482        -0.482827
 H        -3.111049        -1.116402         0.187290
 H        -2.347597        -0.015603         2.064440
 H        -4.375520         1.066358         0.130005
 H        -3.901285        -1.082337        -1.818861
 H        -5.434132         0.070570        -2.160284
 H        -2.070215         2.043774        -1.747403
 H        -3.866125         2.564070        -1.850737
