19
Iteration:  2483
 C         1.472080         0.011149        -0.143676
 C         0.029095         0.074544         0.025268
 C        -1.176859        -0.067280         0.090741
 C        -2.683698        -0.218739         0.081908
 O        -3.280506        -0.115322         1.377551
 C        -3.229304         0.767244        -0.877847
 C        -4.651029         0.753745        -1.392374
 O        -4.150178         1.021834        -2.723472
 C        -2.762389         0.690091        -2.355187
 H         1.763080        -0.316577        -1.171176
 H         1.989095         1.063218         0.007699
 H         2.001453        -0.550479         0.608848
 H        -2.970630        -1.318622        -0.327899
 H        -2.779372        -0.685345         1.956772
 H        -2.903859         1.782995        -0.568005
 H        -5.229417        -0.162071        -1.122639
 H        -5.265197         1.589675        -1.067371
 H        -2.449910        -0.217789        -2.735166
 H        -1.958161         1.349922        -2.713020
