19
Iteration:  2823charge 0 multiplicity 1
 C         1.605725         0.188547         0.466118
 C         0.195456        -0.030064         0.161253
 C        -0.971513        -0.353273         0.002613
 C        -2.461087        -0.390753        -0.183058
 O        -3.241158        -0.298913         1.029603
 C        -3.015464         0.739457        -1.106264
 C        -4.603928         1.113194        -1.101532
 O        -4.545696         1.275340        -2.561284
 C        -3.256548         0.583202        -2.674930
 H         1.837083         0.786804         1.367132
 H         2.128370        -0.834676         0.460933
 H         2.123727         0.732932        -0.402345
 H        -2.745923        -1.295535        -0.674102
 H        -2.662845        -0.733576         1.723377
 H        -2.426546         1.600479        -0.798958
 H        -5.319931         0.403841        -0.662898
 H        -4.860678         1.989538        -0.535917
 H        -3.390898        -0.472530        -2.885100
 H        -2.727077         1.159709        -3.388472
