19
Iteration:   657charge 0 multiplicity 1
 C         1.354710         0.234888         0.570850
 C         0.020595        -0.299002         0.182303
 C        -1.095759        -0.259516        -0.208823
 C        -2.502939        -0.126036        -0.285381
 O        -2.990981         0.103249         1.065362
 C        -2.977898         0.999165        -1.151779
 C        -4.461736         1.239327        -1.241828
 O        -4.610103         0.351476        -2.309053
 C        -3.117649         0.509035        -2.645145
 H         1.799169        -0.387071         1.255465
 H         2.006048         0.237842        -0.388174
 H         1.334159         1.244028         0.997470
 H        -2.802991        -1.138431        -0.639974
 H        -2.238764         0.359363         1.676204
 H        -2.497521         1.910220        -0.870898
 H        -5.110474         0.968906        -0.376291
 H        -4.574946         2.325955        -1.554121
 H        -2.622243        -0.451896        -2.902265
 H        -3.029059         1.216185        -3.466000
