19
Iteration:  3798charge 0 multiplicity 1
 C         1.414556        -0.125316        -0.414278
 C        -0.058621        -0.062352        -0.003051
 C        -1.234707        -0.111369         0.273764
 C        -2.680072        -0.196522         0.178798
 O        -3.411623        -0.042909         1.405687
 C        -3.249551         0.811948        -0.808525
 C        -4.525544         0.565344        -1.564607
 O        -3.978367         1.111433        -2.713875
 C        -2.678083         0.921556        -2.203463
 H         1.324971         0.295459        -1.455914
 H         2.016852         0.520503         0.249701
 H         1.746051        -1.059432        -0.205287
 H        -2.892589        -1.237630        -0.350441
 H        -2.684120        -0.072423         2.056063
 H        -3.211483         1.769708        -0.320869
 H        -4.719628        -0.543565        -1.831972
 H        -5.460661         0.932811        -1.097475
 H        -2.301578        -0.071100        -2.627991
 H        -2.148504         1.901086        -2.501901
