19
Iteration:  2966charge 0 multiplicity 1
 C         1.493932         0.015571         0.596495
 C         0.107938        -0.039712         0.226054
 C        -1.020071        -0.177847        -0.227483
 C        -2.474018        -0.217323        -0.273884
 O        -3.027211        -0.433074         0.968154
 C        -3.006482         0.939299        -1.158576
 C        -4.473045         1.226107        -1.074286
 O        -4.666537         0.993079        -2.512697
 C        -3.254677         0.542035        -2.540048
 H         1.855329         1.083939         0.526052
 H         1.549814        -0.353998         1.656774
 H         2.204670        -0.587482        -0.024501
 H        -2.773722        -1.118310        -0.808823
 H        -2.829780         0.372406         1.495449
 H        -2.337309         1.850921        -1.088594
 H        -5.059446         0.641509        -0.346335
 H        -4.803823         2.235784        -0.851002
 H        -3.221559        -0.557749        -2.569653
 H        -2.688000         1.162880        -3.391759
