19
Iteration:   815charge 0 multiplicity 1
 C         1.338240        -0.192881        -0.459020
 C        -0.070948         0.142088        -0.153630
 C        -1.261942         0.190308         0.326432
 C        -2.653149        -0.159939         0.323069
 O        -3.420634         0.145977         1.476861
 C        -3.152285         0.789369        -0.851550
 C        -4.514699         0.333709        -1.516582
 O        -3.941027         0.973159        -2.713718
 C        -2.655664         0.779677        -2.235305
 H         2.210173        -0.190955         0.321294
 H         1.476492        -1.089181        -0.944645
 H         1.652194         0.523070        -1.240790
 H        -2.749264        -1.260163        -0.014123
 H        -4.044554        -0.624654         1.645125
 H        -3.249186         1.880583        -0.639094
 H        -4.765799        -0.734806        -1.783029
 H        -5.435469         0.829820        -1.065670
 H        -2.372156        -0.234642        -2.618719
 H        -1.998197         1.591083        -2.578092
