19
Iteration:  2536charge 0 multiplicity 1
 C         1.397600        -0.019687        -0.466667
 C         0.113873        -0.233610         0.131036
 C        -1.096270        -0.199673         0.445783
 C        -2.587239        -0.083547         0.129281
 O        -3.537417         0.013672         1.266833
 C        -3.181874         0.970174        -0.833883
 C        -4.549663         0.495694        -1.402041
 O        -4.071161         0.732444        -2.737198
 C        -2.806028         1.202413        -2.334554
 H         1.482106        -0.841074        -1.082127
 H         1.738055         1.003314        -0.777193
 H         2.247667        -0.075724         0.243949
 H        -2.826193        -0.956875        -0.384252
 H        -3.268587        -0.545437         1.979240
 H        -3.225529         1.964047        -0.412577
 H        -4.638501        -0.620561        -1.105893
 H        -5.421425         1.093654        -1.069626
 H        -2.059293         0.347362        -2.911141
 H        -2.492928         2.270266        -2.498316
