19
Iteration:     3
 C         1.510595        -0.082117         0.114487
 C         0.074940        -0.077416         0.065117
 C        -1.137889        -0.081618         0.017198
 C        -2.599762        -0.056038        -0.010445
 O        -3.169842         0.127376         1.300152
 C        -3.120371         0.994621        -0.988303
 C        -4.639530         0.893030        -1.296915
 O        -4.368982         0.467295        -2.664349
 C        -2.937585         0.662041        -2.495742
 H         1.840863        -0.257287         1.211674
 H         1.940311        -0.865088        -0.372233
 H         1.898294         0.894759        -0.239105
 H        -3.016492        -1.056793        -0.301025
 H        -2.681077         0.884172         1.720813
 H        -2.716358         1.952097        -0.704641
 H        -5.159133         0.080317        -0.700605
 H        -5.180357         1.780216        -1.345380
 H        -2.287699        -0.262197        -2.655669
 H        -2.541925         1.453988        -3.176433
