19
Iteration:  4329charge 0 multiplicity 1
 C         1.582701        -0.016098         0.480160
 C         0.171583        -0.052538         0.203683
 C        -0.979385        -0.190524         0.000033
 C        -2.427898        -0.312723        -0.319001
 O        -3.019528        -0.693521         1.054017
 C        -3.156380         0.839881        -1.032882
 C        -4.676414         0.895955        -1.215068
 O        -4.583599         1.458283        -2.527320
 C        -3.220996         0.939829        -2.599260
 H         2.133264         0.854810        -0.044422
 H         1.782484        -0.136250         1.596757
 H         2.157333        -0.822731         0.088959
 H        -2.475114        -1.294145        -0.905457
 H        -3.056175         0.066538         1.686984
 H        -2.767542         1.779754        -0.839641
 H        -5.330517        -0.092805        -1.053915
 H        -5.148825         1.675323        -0.469009
 H        -3.229401        -0.143961        -3.125218
 H        -2.650148         1.789911        -3.103534
