19
Iteration:  4468charge 0 multiplicity 1
 C         1.415691        -0.025884        -0.103994
 C        -0.009902        -0.136447        -0.056204
 C        -1.233042        -0.106127        -0.028432
 C        -2.591325        -0.271600        -0.197919
 O        -3.246633        -0.521353         1.142391
 C        -3.328651         0.973572        -0.648114
 C        -4.678815         0.730793        -1.411915
 O        -3.931487         0.822619        -2.652868
 C        -2.838347         1.483083        -1.986914
 H         1.801787        -0.359422        -1.112200
 H         1.723947         1.005035         0.203141
 H         1.957106        -0.577925         0.645817
 H        -2.687532        -1.087156        -0.858714
 H        -2.625660        -1.112793         1.650644
 H        -3.266302         1.773645         0.183473
 H        -5.173719        -0.375931        -1.159547
 H        -5.436317         1.554964        -1.226386
 H        -1.933880         1.116847        -2.455624
 H        -3.045927         2.618734        -2.031049
