19
Iteration:  2716charge 0 multiplicity 1
 C         1.560266        -0.165192         0.060065
 C         0.095640        -0.170321         0.013367
 C        -1.113992         0.025916         0.110777
 C        -2.553774        -0.285381        -0.029863
 O        -3.261247        -0.217226         1.260252
 C        -3.200450         0.893453        -0.885511
 C        -4.656237         0.695653        -1.292796
 O        -4.297749         0.833574        -2.725219
 C        -2.940533         1.216280        -2.423238
 H         2.075530        -0.676830         0.967975
 H         2.013122        -0.615667        -0.819458
 H         1.831884         0.834757         0.054415
 H        -2.731563        -1.353486        -0.416784
 H        -3.081752         0.735650         1.491114
 H        -3.002507         1.832092        -0.242475
 H        -5.052437        -0.320240        -1.100372
 H        -5.345364         1.531373        -0.911935
 H        -2.223119         0.539109        -3.023825
 H        -2.550060         2.254933        -2.718153
