19
Iteration:  1527charge 0 multiplicity 1
 C         1.358733         0.255515        -0.130488
 C        -0.045848        -0.043872         0.053623
 C        -1.216279        -0.340559         0.123312
 C        -2.703355        -0.344245         0.034871
 O        -3.326498        -0.162859         1.356332
 C        -3.029148         0.791675        -0.937628
 C        -4.481910         1.234616        -1.300064
 O        -4.208170         0.821179        -2.701725
 C        -2.784034         0.511307        -2.440035
 H         1.716629         0.559558        -1.138146
 H         1.778870         1.138568         0.580410
 H         1.992483        -0.605132         0.274599
 H        -2.973805        -1.360490        -0.168586
 H        -2.965782         0.669170         1.732759
 H        -2.414233         1.681704        -0.614890
 H        -5.293242         0.607964        -0.882515
 H        -4.559181         2.304905        -1.119687
 H        -2.477501        -0.517571        -2.698494
 H        -2.151304         1.356185        -2.805018
