19
Iteration:  1729charge 0 multiplicity 1
 C         1.402468        -0.517910         0.705175
 C         0.212743         0.130755         0.279528
 C        -0.902221         0.517910        -0.187129
 C        -2.303952         0.080342        -0.223744
 O        -2.867532         0.025208         1.130309
 C        -3.108846         0.887633        -1.211965
 C        -4.652705         0.907015        -1.215092
 O        -4.764154         0.691215        -2.612518
 C        -3.344458         0.374876        -2.681652
 H         1.719261        -1.492400         0.089810
 H         2.176010         0.152212         0.974694
 H         1.180206        -1.099689         1.636481
 H        -2.189912        -0.866747        -0.497685
 H        -2.231867         0.423896         1.733043
 H        -2.971169         1.936925        -1.276346
 H        -4.958052         0.070955        -0.588976
 H        -5.038739         1.843274        -1.039923
 H        -3.066279        -0.696541        -2.930477
 H        -2.867786         0.873020        -3.501631
