19
Iteration:  2022charge 0 multiplicity 1
 C         1.289197        -0.114882        -0.606046
 C        -0.066562        -0.121085         0.094065
 C        -1.197714        -0.016081         0.457625
 C        -2.612161        -0.042085         0.248390
 O        -3.477619         0.414802         1.391041
 C        -3.033890         0.827138        -0.855721
 C        -4.469005         0.663061        -1.326639
 O        -4.067401         0.630374        -2.767801
 C        -2.640268         0.525058        -2.378003
 H         1.924204        -0.706281         0.016421
 H         1.297659        -0.637336        -1.616729
 H         1.629324         0.938608        -0.635041
 H        -3.163013        -1.057839         0.067736
 H        -3.487670         1.420953         1.325805
 H        -2.815470         1.849966        -0.588342
 H        -5.003387        -0.107439        -0.942285
 H        -5.161334         1.492200        -1.124451
 H        -2.413430        -0.524661        -2.546367
 H        -2.032510         1.116903        -3.040028
