19
Iteration:  2319charge 0 multiplicity 1
 C         1.655377         0.009665         0.585888
 C         0.154620        -0.099043         0.271939
 C        -1.027622        -0.232186        -0.025716
 C        -2.464851        -0.196867        -0.262606
 O        -3.119910        -0.005303         0.966307
 C        -3.009474         0.910835        -1.177406
 C        -4.507129         1.177408        -1.130150
 O        -4.700969         0.786086        -2.562709
 C        -3.315220         0.550755        -2.618410
 H         1.978450         1.001339         0.219813
 H         1.795127        -0.121489         1.699968
 H         2.272939        -0.765673         0.152090
 H        -2.722647        -1.087777        -0.801097
 H        -2.709941        -0.497726         1.692176
 H        -2.314319         1.735963        -1.017347
 H        -4.998485         0.401298        -0.542732
 H        -4.824186         2.165889        -0.791084
 H        -3.097717        -0.550515        -2.849673
 H        -2.801163         0.940800        -3.476546
