19
Iteration:  3284
 C         1.230769        -0.151194        -0.696066
 C        -0.078923         0.032952        -0.043869
 C        -1.176672        -0.045698         0.485625
 C        -2.698644        -0.129215         0.333082
 O        -3.446337        -0.188450         1.561559
 C        -3.266220         0.859447        -0.745558
 C        -4.495017         0.637544        -1.651405
 O        -3.852546         0.959588        -2.873388
 C        -2.579546         0.936677        -2.166547
 H         1.299273        -1.177273        -0.821552
 H         1.313729         0.341632        -1.694240
 H         1.949770         0.119677         0.151037
 H        -2.889931        -1.240901        -0.114117
 H        -3.177633         0.559093         2.088257
 H        -3.416173         1.952997        -0.394774
 H        -4.762974        -0.434319        -1.598864
 H        -5.477803         1.102654        -1.420395
 H        -1.943337         0.064471        -2.485636
 H        -2.049389         1.849505        -2.412740
