19
Iteration:   987
 C         1.112404        -0.256813        -0.233500
 C        -0.338389        -0.391652        -0.249276
 C        -1.504769        -0.253959        -0.339166
 C        -2.827442        -0.145169         0.230081
 O        -2.524930         0.811197         1.420245
 C        -3.898953         0.625683        -0.656931
 C        -4.181404        -0.178773        -1.950436
 O        -3.294909         0.792729        -2.756250
 C        -3.248191         1.670199        -1.543869
 H         1.559272         0.436925         0.371195
 H         1.829205        -1.148665        -0.030360
 H         1.438103        -0.153946        -1.273068
 H        -3.170917        -1.151689         0.636082
 H        -3.076986         0.681126         2.177259
 H        -4.662015         0.885726         0.047581
 H        -3.626852        -1.139660        -1.975095
 H        -5.152587        -0.283598        -2.335385
 H        -2.266097         1.980904        -1.176459
 H        -3.786050         2.573359        -1.682384
