19
Iteration:  3253
 C         1.126607        -0.168175        -0.698248
 C        -0.159667         0.084392         0.007738
 C        -1.351284        -0.044903         0.232711
 C        -2.800743        -0.171391         0.188810
 O        -3.371786        -0.122666         1.515106
 C        -3.264069         0.920766        -0.713787
 C        -4.399161         0.556983        -1.528688
 O        -3.759186         0.813658        -2.771614
 C        -2.495537         1.040025        -2.093633
 H         0.990104        -1.165253        -0.923959
 H         1.447049         0.635508        -1.402134
 H         1.976773        -0.198229         0.127143
 H        -3.181712        -1.049969        -0.135091
 H        -2.688045         0.387405         2.035166
 H        -3.330624         1.967479        -0.245672
 H        -4.484104        -0.550044        -1.441502
 H        -5.364181         1.101806        -1.396572
 H        -1.769203         0.371820        -2.343888
 H        -2.084082         1.989480        -2.420414
