19
Iteration:  2375charge 0 multiplicity 1
 C         1.420685         0.321864         0.413500
 C         0.084425        -0.246339         0.147077
 C        -1.083302        -0.595879         0.060043
 C        -2.507819        -0.380677        -0.178029
 O        -3.062754         0.166832         1.103393
 C        -2.992884         0.732518        -1.125673
 C        -4.503685         1.024185        -1.164454
 O        -4.563298         1.017186        -2.566183
 C        -3.130858         0.625942        -2.710629
 H         1.844172         1.054092        -0.394296
 H         1.346252         0.766053         1.446929
 H         2.125182        -0.466448         0.513223
 H        -2.940451        -1.280139        -0.494577
 H        -2.533359        -0.109355         1.901151
 H        -2.359176         1.618476        -0.851533
 H        -5.029514         0.115070        -0.796553
 H        -4.817583         1.852543        -0.521348
 H        -3.081025        -0.510501        -2.886438
 H        -2.696033         1.395420        -3.348357
