19
Iteration:   121
 C         1.512175        -0.467569         0.394345
 C         0.186379        -0.256222         0.064512
 C        -0.994738        -0.011957        -0.079320
 C        -2.477294         0.135910         0.055477
 O        -2.898941         0.578984         1.334402
 C        -3.415241         0.887435        -0.987313
 C        -4.555219        -0.003605        -1.532827
 O        -4.595267         0.785416        -2.807406
 C        -3.147705         1.149298        -2.427832
 H         1.882312         0.300768         1.010237
 H         1.606211        -1.425893         1.028435
 H         2.093783        -0.430772        -0.544913
 H        -2.818782        -0.891473        -0.026215
 H        -2.330642         1.304476         1.658570
 H        -3.636858         1.837231        -0.532632
 H        -4.074217        -0.958389        -1.734934
 H        -5.481694        -0.092288        -1.036729
 H        -2.574225         0.389310        -2.923205
 H        -2.776731         2.114822        -2.706950
