19
Iteration:  4689charge 0 multiplicity 1
 C         1.382407         0.169278         0.082735
 C         0.000298        -0.116239        -0.045959
 C        -1.219835        -0.198359        -0.135472
 C        -2.661224        -0.410614        -0.104999
 O        -3.052984        -0.513181         1.320169
 C        -3.252776         0.776157        -0.830120
 C        -4.630133         0.709794        -1.383253
 O        -4.167115         1.476670        -2.567201
 C        -2.778778         0.988020        -2.321906
 H         1.808297        -0.289762         1.037100
 H         2.101794        -0.018909        -0.777351
 H         1.425537         1.205148         0.377926
 H        -2.894925        -1.309711        -0.592626
 H        -3.469056        -1.409156         1.441423
 H        -3.006717         1.813663        -0.280510
 H        -5.296435        -0.434370        -1.551146
 H        -5.372844         1.315678        -0.834302
 H        -2.589302         0.139415        -3.029324
 H        -1.969951         1.723329        -2.493247
