19
Iteration:    25charge 0 multiplicity 1
 C         1.527869        -0.222284         0.290576
 C         0.088792        -0.158318        -0.072547
 C        -1.104845         0.105524        -0.092419
 C        -2.564888         0.083590         0.029717
 O        -3.052613         0.148192         1.407145
 C        -3.240294         1.053430        -1.008860
 C        -4.679910         0.649327        -1.328476
 O        -4.393077         0.567699        -2.759702
 C        -2.982231         0.678514        -2.484782
 H         1.758512        -0.235615         1.447373
 H         1.931007        -1.086533        -0.008283
 H         2.076477         0.617162        -0.189530
 H        -2.885126        -0.941565        -0.307448
 H        -2.595504         0.888263         1.805095
 H        -3.170189         2.098855        -0.776367
 H        -4.879110        -0.415945        -0.975649
 H        -5.397956         1.351995        -1.070765
 H        -2.521100        -0.318082        -2.756906
 H        -2.436984         1.468857        -3.054670
