19
Iteration:  3963charge 0 multiplicity 1
 C         1.446990        -0.213592        -0.256035
 C         0.027537        -0.214244        -0.073162
 C        -1.204791        -0.242412         0.009488
 C        -2.712127        -0.156234         0.124451
 O        -3.213092        -0.036263         1.478035
 C        -3.483155         1.012107        -0.657640
 C        -4.643183         0.481638        -1.620166
 O        -3.879456         0.826716        -2.890617
 C        -2.809705         1.398140        -2.041375
 H         1.758492        -1.203477        -0.728446
 H         1.855449         0.483210        -1.033826
 H         2.021736         0.251694         0.685426
 H        -3.046419        -1.098579        -0.180422
 H        -2.580045        -0.268909         2.152208
 H        -3.571481         1.912370        -0.141860
 H        -4.827186        -0.625517        -1.365095
 H        -5.604775         1.021255        -1.786515
 H        -1.949899         0.816279        -2.178921
 H        -2.741761         2.437632        -2.172337
