19
Iteration:  3076charge 0 multiplicity 1
 C         1.590366        -0.322418         0.270008
 C         0.130761        -0.075607         0.082847
 C        -1.073727         0.008104        -0.134862
 C        -2.552736        -0.065253        -0.089274
 O        -3.186513        -0.067202         1.196152
 C        -3.239095         1.096462        -0.869233
 C        -4.728099         0.755615        -1.245798
 O        -4.367688         0.596079        -2.705087
 C        -2.951706         1.066125        -2.443471
 H         1.967771         0.238081        -0.494765
 H         2.137801         0.186670         1.076201
 H         1.921021        -1.389531         0.271458
 H        -2.695114        -1.036942        -0.740176
 H        -2.664943        -0.692404         1.732755
 H        -2.983970         2.134775        -0.473068
 H        -5.052701        -0.246332        -0.966316
 H        -5.573056         1.385164        -1.016537
 H        -2.254776         0.395117        -2.860000
 H        -2.763790         2.165318        -2.758655
