19
Iteration:  3945charge 0 multiplicity 1
 C         1.393535        -0.167215        -0.292831
 C        -0.118300        -0.153690        -0.155773
 C        -1.298546        -0.250070        -0.013797
 C        -2.714191        -0.195341         0.172044
 O        -3.211050         0.023369         1.536040
 C        -3.400111         0.888419        -0.734744
 C        -4.559924         0.460903        -1.634602
 O        -3.844581         0.839912        -2.805022
 C        -2.727426         1.383763        -2.046082
 H         1.672104        -1.172214        -0.735294
 H         1.683374         0.724540        -0.886996
 H         1.767184        -0.080537         0.678673
 H        -3.170777        -1.146993        -0.294826
 H        -2.446635        -0.234845         2.048352
 H        -3.638281         1.645280         0.080979
 H        -4.755545        -0.557218        -1.762974
 H        -5.402311         1.124795        -1.398533
 H        -1.705284         0.891252        -2.298186
 H        -2.721287         2.551196        -2.180279
