19
Iteration:  3382
 C         1.427227         0.111829         0.000223
 C        -0.017799        -0.236352        -0.018301
 C        -1.244473        -0.324991         0.030663
 C        -2.737790        -0.352405         0.030227
 O        -3.121119         0.032427         1.456719
 C        -3.210783         0.775430        -0.891393
 C        -4.577516         0.887468        -1.381776
 O        -4.186777         1.034574        -2.751137
 C        -2.758261         0.802956        -2.474292
 H         1.852850        -0.538852         0.689578
 H         1.889721        -0.099409        -0.965936
 H         1.393302         1.115067         0.429990
 H        -3.212562        -1.310507        -0.050603
 H        -2.331828         0.122230         1.981092
 H        -2.846450         1.661499        -0.457548
 H        -5.241664         0.032856        -1.397004
 H        -5.203613         1.749234        -1.019912
 H        -2.566707        -0.235461        -2.865420
 H        -2.087345         1.623485        -2.703114
