19
Iteration:  4804
 C         1.649823         0.012980         0.487191
 C         0.186914        -0.102962         0.211480
 C        -0.999208        -0.299952        -0.078994
 C        -2.455808        -0.304700        -0.328449
 O        -3.213318        -0.686649         0.822014
 C        -3.035208         1.071790        -0.980817
 C        -4.623375         1.080082        -1.068330
 O        -4.651104         1.074773        -2.496342
 C        -3.094873         1.053251        -2.504870
 H         1.863565         0.441275         1.467471
 H         1.965590        -1.037380         0.427692
 H         2.165218         0.540464        -0.369612
 H        -2.700960        -1.012182        -1.046542
 H        -3.194827         0.084123         1.438326
 H        -2.583195         1.851295        -0.352870
 H        -5.105786         0.118420        -0.463805
 H        -5.259300         1.913709        -0.577930
 H        -2.953272         0.089491        -3.031860
 H        -2.626611         1.819382        -3.084545
