19
Iteration:  1992charge 0 multiplicity 1
 C         1.131778        -0.111938        -0.743309
 C        -0.136160        -0.037875         0.021861
 C        -1.157341        -0.051901         0.675369
 C        -2.587449         0.007077         0.319209
 O        -3.618997         0.337933         1.305749
 C        -2.891468         0.861626        -0.858965
 C        -4.354155         0.791326        -1.308223
 O        -4.070518         0.539647        -2.723818
 C        -2.588640         0.465323        -2.402677
 H         1.802201        -0.845688        -0.130190
 H         1.015269        -0.231608        -1.756436
 H         1.701565         0.799329        -0.607206
 H        -2.753373        -1.091871        -0.063815
 H        -3.605148         1.285044         1.437404
 H        -2.484597         1.869386        -0.643230
 H        -4.951011        -0.085468        -0.696216
 H        -5.075986         1.637198        -1.203505
 H        -2.273173        -0.604057        -2.624311
 H        -2.059043         1.299988        -2.969372
