19
Iteration:  2328charge 0 multiplicity 1
 C         1.564888         0.058197         0.571997
 C         0.163427        -0.172622         0.233959
 C        -1.019648        -0.217059        -0.049815
 C        -2.465572        -0.264781        -0.284297
 O        -3.185876         0.066003         0.964496
 C        -2.918700         0.882929        -1.186411
 C        -4.482404         1.083094        -1.059616
 O        -4.681614         0.835669        -2.501212
 C        -3.259230         0.540591        -2.706994
 H         1.857742         0.998391         0.133830
 H         1.770604         0.115460         1.766526
 H         2.304277        -0.685182         0.119362
 H        -2.809992        -1.206904        -0.591603
 H        -2.832211        -0.420226         1.730703
 H        -2.343759         1.781550        -1.031326
 H        -5.024628         0.456759        -0.371876
 H        -4.876571         2.093124        -0.821094
 H        -3.133444        -0.585605        -2.771703
 H        -2.750651         1.260810        -3.338556
