19
Iteration:   235
 C         1.337534        -0.180445        -0.268768
 C        -0.171334        -0.232292        -0.273608
 C        -1.299214         0.069435         0.046143
 C        -2.767546         0.009055         0.210431
 O        -3.020943         0.626814         1.655850
 C        -3.458738         0.837541        -0.792158
 C        -4.645104         0.291728        -1.648275
 O        -3.898434         0.552869        -2.860990
 C        -2.635274         0.873914        -2.089121
 H         1.923451         0.818181        -0.717819
 H         1.630524        -0.196234         0.744405
 H         1.829884        -1.051317        -0.775097
 H        -3.131382        -1.009426         0.233689
 H        -2.698708        -0.050949         2.303865
 H        -3.428887         1.940113        -0.535753
 H        -4.734804        -0.784602        -1.540519
 H        -5.707982         0.520961        -1.504559
 H        -1.885268         0.202150        -2.390975
 H        -2.118560         1.882996        -2.274085
