19
Iteration:  3339charge 0 multiplicity 1
 C         1.380855        -0.006071        -0.351407
 C        -0.047644        -0.096534        -0.028478
 C        -1.268715        -0.245885         0.150020
 C        -2.756015        -0.258547         0.173431
 O        -3.345527        -0.040708         1.489041
 C        -3.173264         0.862639        -0.817260
 C        -4.557064         0.650231        -1.462567
 O        -3.987918         1.122246        -2.746435
 C        -2.633251         0.779233        -2.256062
 H         1.901550        -0.880555        -0.215132
 H         1.553252         0.073858        -1.467821
 H         1.934408         0.845791         0.213153
 H        -3.112321        -1.309803        -0.367712
 H        -3.328669         0.917734         1.568505
 H        -3.182910         1.919556        -0.369506
 H        -4.737245        -0.433872        -1.402834
 H        -5.386160         1.285570        -1.077396
 H        -2.339463        -0.352183        -2.480826
 H        -2.017391         1.571487        -2.685518
