19
Iteration:  1218charge 0 multiplicity 1
 C         1.006061        -0.693122        -0.786189
 C        -0.344558        -0.502139        -0.358866
 C        -1.412874        -0.176012         0.273588
 C        -2.873100         0.011078         0.575632
 O        -3.014828         1.035290         1.595436
 C        -3.702091         0.354140        -0.729798
 C        -3.384076        -0.253559        -2.174252
 O        -3.324229         1.113568        -2.809137
 C        -3.526358         1.645715        -1.469868
 H         1.340442         0.254334        -1.013717
 H         1.664545        -1.260733        -0.013185
 H         0.992020        -1.218478        -1.729182
 H        -3.189729        -0.875385         1.124426
 H        -2.927479         1.921820         1.224799
 H        -4.638150         0.285021        -0.216451
 H        -2.349302        -0.858188        -2.122268
 H        -4.252603        -0.741219        -2.686802
 H        -2.696386         2.309204        -1.134955
 H        -4.359001         2.357821        -1.488648
