19
Iteration:  3380
 C         1.419415         0.118114        -0.019433
 C        -0.025125        -0.227135        -0.033337
 C        -1.230489        -0.336228         0.054698
 C        -2.735116        -0.353101         0.047098
 O        -3.134697         0.029821         1.463164
 C        -3.203025         0.777822        -0.898076
 C        -4.574730         0.883975        -1.383749
 O        -4.182991         1.040752        -2.758825
 C        -2.753900         0.798590        -2.472308
 H         1.854043        -0.624828         0.756455
 H         1.854690        -0.088999        -0.998967
 H         1.410770         1.063604         0.428124
 H        -3.177821        -1.264524        -0.071274
 H        -2.299183         0.168537         1.954813
 H        -2.896229         1.663227        -0.440058
 H        -5.266891         0.040707        -1.429041
 H        -5.244445         1.683407        -1.012579
 H        -2.532386        -0.191804        -2.836116
 H        -2.097167         1.636744        -2.685063
