19
Iteration:  2717
 C         1.568646        -0.166769         0.066189
 C         0.092681        -0.164447         0.022087
 C        -1.113392         0.033425         0.113894
 C        -2.547613        -0.289416        -0.032212
 O        -3.261677        -0.226448         1.261323
 C        -3.197540         0.892999        -0.894524
 C        -4.668730         0.694910        -1.284754
 O        -4.304583         0.843825        -2.734836
 C        -2.936554         1.201064        -2.420275
 H         2.097728        -0.704244         0.963267
 H         2.000100        -0.608759        -0.808965
 H         1.861923         0.845759        -0.014035
 H        -2.752704        -1.308680        -0.437080
 H        -3.081657         0.732926         1.511487
 H        -2.991912         1.834374        -0.271279
 H        -5.046455        -0.308924        -1.052211
 H        -5.332851         1.560296        -0.929557
 H        -2.259085         0.543288        -3.020079
 H        -2.524421         2.262326        -2.735154
