19
Iteration:   852
 C         1.312579        -0.287401        -0.458793
 C        -0.080849         0.124741        -0.092383
 C        -1.197974         0.086642         0.318170
 C        -2.676191        -0.147924         0.311000
 O        -3.185949         0.252175         1.600296
 C        -3.342527         0.748006        -0.826664
 C        -4.469762         0.113606        -1.746000
 O        -3.972928         0.941902        -2.840866
 C        -2.735869         1.124356        -2.142548
 H         2.102901        -0.061711         0.317251
 H         1.182798        -1.399085        -0.686097
 H         1.494461         0.224639        -1.425976
 H        -2.911708        -1.277171         0.187560
 H        -4.117818        -0.066194         1.689902
 H        -3.681297         1.601927        -0.178174
 H        -4.313167        -0.989045        -1.891740
 H        -5.481052         0.370542        -1.528878
 H        -1.928650         0.423014        -2.378441
 H        -2.217829         2.107220        -2.122552
