19
Iteration:  2227
 C         1.604018        -0.434684         0.594372
 C         0.230888         0.138278         0.211922
 C        -0.948611         0.135981        -0.045075
 C        -2.414931         0.068174        -0.222525
 O        -3.224713        -0.001525         1.015532
 C        -3.059399         1.030284        -1.203669
 C        -4.562556         0.945451        -1.115398
 O        -4.694516         0.658787        -2.582169
 C        -3.246956         0.543855        -2.621536
 H         2.190649         0.350112         1.035837
 H         1.602438        -1.506491         1.041987
 H         2.306042        -0.603684        -0.301451
 H        -2.489253        -0.977245        -0.500577
 H        -2.504998        -0.055474         1.668323
 H        -2.787160         2.101246        -1.139484
 H        -4.870956        -0.002818        -0.627458
 H        -5.136652         1.767221        -0.654728
 H        -2.899301        -0.562551        -2.754303
 H        -2.662834         1.016972        -3.413483
