19
Iteration:  4371
 C         1.541557        -0.052562         0.371887
 C         0.134028        -0.076833         0.086093
 C        -1.040818        -0.090525        -0.244182
 C        -2.520072        -0.269173        -0.244689
 O        -3.161751        -0.538583         1.033496
 C        -3.210485         0.842980        -0.855133
 C        -4.658046         0.768357        -1.206016
 O        -4.438729         1.284966        -2.541241
 C        -3.031906         1.062510        -2.397875
 H         2.093057         0.608379        -0.373620
 H         1.687356         0.325270         1.419913
 H         2.024087        -0.960215         0.438665
 H        -2.683062        -1.229846        -0.987309
 H        -2.466602        -0.682302         1.728637
 H        -3.149013         1.724703        -0.208115
 H        -5.063796        -0.154718        -1.329182
 H        -5.267937         1.318355        -0.609774
 H        -2.588649         0.203047        -2.886649
 H        -2.271312         1.850624        -2.724031
