19
Iteration:  2214charge 0 multiplicity 1
 C         1.633934        -0.355265         0.518437
 C         0.253508        -0.003226         0.294477
 C        -0.894871         0.047873        -0.018592
 C        -2.411203         0.027300        -0.221087
 O        -3.223692         0.143917         0.993253
 C        -3.081015         1.044193        -1.184057
 C        -4.615391         0.800682        -1.113937
 O        -4.671070         0.685117        -2.564771
 C        -3.225730         0.582929        -2.681013
 H         2.173054         0.217112         1.371711
 H         1.561373        -1.307224         1.069090
 H         2.148537        -0.418927        -0.469909
 H        -2.654919        -0.841711        -0.722085
 H        -2.740177         0.039409         1.836226
 H        -2.659587         2.074293        -1.023477
 H        -4.989257        -0.104976        -0.487208
 H        -5.272669         1.673817        -0.795945
 H        -2.904284        -0.478084        -2.820190
 H        -2.979030         1.317477        -3.480051
