19
Iteration:  2415
 C         1.388629         0.230009         0.254902
 C        -0.020505        -0.108009         0.153843
 C        -1.174338        -0.252324        -0.225662
 C        -2.597056        -0.354345        -0.020490
 O        -2.932873        -0.050769         1.343265
 C        -3.141941         0.739565        -0.994976
 C        -4.568476         1.023665        -1.299364
 O        -4.310362         1.119467        -2.714637
 C        -3.063271         0.463822        -2.505128
 H         1.715848         0.512427        -0.695090
 H         1.377981         1.035051         1.106565
 H         2.103077        -0.474387         0.769538
 H        -3.096553        -1.434344        -0.178386
 H        -2.190907        -0.474610         1.778454
 H        -2.717125         1.652099        -0.609765
 H        -5.323016         0.224517        -1.170166
 H        -5.149568         1.907171        -1.021361
 H        -3.265696        -0.519959        -2.851203
 H        -2.148834         0.730436        -3.073543
