19
Iteration:  1430
 C         1.270674        -0.292201        -0.354977
 C        -0.070929        -0.025832        -0.035770
 C        -1.267965         0.154055         0.144407
 C        -2.609226        -0.099594         0.226898
 O        -3.272872         0.059285         1.525708
 C        -3.315453         0.719331        -0.793591
 C        -4.534090         0.225928        -1.651378
 O        -3.963483         0.967280        -2.826341
 C        -2.704076         1.205181        -2.154662
 H         1.703990         0.069812        -1.305953
 H         1.893768        -0.010468         0.417684
 H         1.443215        -1.380385        -0.325504
 H        -2.832692        -1.234315        -0.023922
 H        -2.621180         0.374772         2.182618
 H        -3.785738         1.637371        -0.344344
 H        -4.442066        -0.853745        -1.766568
 H        -5.412983         0.771333        -1.393038
 H        -1.821037         0.519948        -2.408296
 H        -2.284527         2.211184        -2.312642
