19
Iteration:   286
 C         1.150711        -0.087525        -0.661961
 C        -0.066740        -0.040058         0.075088
 C        -1.263632        -0.112351         0.399636
 C        -2.780464        -0.114094         0.306303
 O        -3.336087         0.535573         1.459941
 C        -3.168238         0.818746        -0.799570
 C        -4.483250         0.515991        -1.512801
 O        -3.849068         0.534209        -2.831709
 C        -2.625617         0.762846        -2.222867
 H         0.919797         0.463705        -1.495340
 H         2.065494         0.405031        -0.284995
 H         1.328900        -1.061195        -1.131730
 H        -3.146929        -1.181656         0.184513
 H        -2.841956         0.167467         2.261591
 H        -2.912744         1.791992        -0.479847
 H        -4.867964        -0.491292        -1.150373
 H        -5.364033         1.149409        -1.438558
 H        -1.710553         0.152409        -2.411081
 H        -2.368516         1.731381        -2.622787
