19
Iteration:   590
 C         1.686534        -0.301301         0.861214
 C         0.336414         0.110551         0.231907
 C        -0.866407         0.330129        -0.084291
 C        -2.267016        -0.016764        -0.316137
 O        -3.130807         0.229134         0.923514
 C        -3.075850         0.890799        -1.283002
 C        -4.589864         0.922156        -1.141789
 O        -4.870800         0.524616        -2.434917
 C        -3.443811         0.354626        -2.743651
 H         1.583383        -1.307680         1.004797
 H         2.559204        -0.191139         0.121083
 H         1.972866         0.008396         1.861494
 H        -2.454846        -1.111776        -0.571641
 H        -2.840929        -0.469694         1.498732
 H        -2.532611         1.877072        -1.401332
 H        -5.093366         0.201217        -0.478278
 H        -4.932803         1.992935        -1.017283
 H        -3.083416        -0.550547        -3.233649
 H        -3.237538         1.181115        -3.426145
