19
Iteration:   290charge 0 multiplicity 1
 C         1.147083        -0.081503        -0.688505
 C        -0.078840        -0.049734         0.128916
 C        -1.273581        -0.080738         0.412176
 C        -2.737396        -0.133901         0.323196
 O        -3.338329         0.513588         1.415866
 C        -3.154710         0.810011        -0.774095
 C        -4.502008         0.543334        -1.494651
 O        -3.870147         0.511590        -2.837061
 C        -2.588323         0.763463        -2.232467
 H         0.836932         0.518569        -1.680307
 H         1.991031         0.441216        -0.344567
 H         1.275158        -1.087027        -1.109579
 H        -3.117212        -1.150293         0.219976
 H        -2.919939         0.228170         2.215260
 H        -2.949002         1.861056        -0.410257
 H        -4.874061        -0.471243        -1.316513
 H        -5.258712         1.323260        -1.453214
 H        -1.823399         0.012842        -2.434553
 H        -2.278410         1.832469        -2.551576
