19
Iteration:  4085charge 0 multiplicity 1
 C         1.499007        -0.206126         0.205387
 C         0.071871        -0.233892         0.165425
 C        -1.112455         0.053468        -0.064211
 C        -2.531195        -0.140713        -0.207309
 O        -3.175892        -0.409493         1.030677
 C        -3.129988         1.075604        -0.814739
 C        -4.673937         0.887227        -1.237831
 O        -4.344551         0.731896        -2.620791
 C        -3.009766         1.227077        -2.358468
 H         1.963688        -0.711923         1.121400
 H         1.908154        -0.641203        -0.749723
 H         1.927551         0.824392         0.224227
 H        -2.633528        -1.183204        -0.844755
 H        -2.676313        -0.931820         1.651275
 H        -2.931812         1.939997        -0.265535
 H        -5.041415        -0.086542        -0.788342
 H        -5.110919         1.873048        -1.115132
 H        -2.230110         0.710341        -2.908523
 H        -2.931415         2.245583        -2.671959
