19
Iteration:  3028
 C         1.612878        -0.212624         0.300209
 C         0.184854        -0.098258         0.357423
 C        -1.015678         0.063618         0.124311
 C        -2.450947        -0.131452        -0.216322
 O        -3.252317        -0.228850         0.981270
 C        -3.020474         0.993988        -1.153030
 C        -4.581002         0.857235        -1.128901
 O        -4.597215         0.781783        -2.519536
 C        -3.202340         0.942710        -2.658286
 H         2.185848         0.654120        -0.168607
 H         2.034890        -0.219632         1.348977
 H         1.806508        -1.308481         0.042356
 H        -2.434751        -1.148503        -0.795101
 H        -2.625236        -0.166955         1.723384
 H        -2.601642         1.896812        -0.831236
 H        -4.975308        -0.032011        -0.582592
 H        -5.239307         1.743833        -0.856336
 H        -2.647764         0.084997        -3.149994
 H        -2.965922         1.823614        -3.151990
