19
Iteration:  2530charge 0 multiplicity 1
 C         1.403622         0.001933        -0.429548
 C         0.090214        -0.201762         0.211400
 C        -1.119137        -0.217976         0.423313
 C        -2.617615        -0.089151         0.125159
 O        -3.480685         0.010570         1.260036
 C        -3.123316         0.972447        -0.856171
 C        -4.570062         0.519855        -1.391017
 O        -4.106982         0.784866        -2.747821
 C        -2.798832         1.093445        -2.355878
 H         1.378455        -0.778090        -1.342613
 H         1.679173         1.012577        -0.846035
 H         2.355387        -0.158760         0.173699
 H        -2.690500        -1.103318        -0.545877
 H        -3.197011        -0.575581         1.987737
 H        -3.322428         1.935165        -0.298114
 H        -4.741668        -0.520263        -1.278343
 H        -5.392966         1.054673        -0.896518
 H        -2.087471         0.518086        -2.789612
 H        -2.473355         2.102836        -2.600492
