19
Iteration:    71
 C         1.515222        -0.528115         0.391079
 C         0.157978         0.080329         0.150355
 C        -1.017074         0.195745        -0.194545
 C        -2.522783         0.076785         0.029683
 O        -2.771699         0.390760         1.358974
 C        -3.410540         0.736069        -0.923102
 C        -4.750941         0.267232        -1.519653
 O        -4.517779         0.788536        -2.840004
 C        -3.102416         0.871579        -2.456377
 H         1.848330        -0.257412         1.498474
 H         1.430049        -1.582360         0.454012
 H         2.299849        -0.158734        -0.286358
 H        -2.665163        -1.047491        -0.026745
 H        -2.378320         1.213708         1.615242
 H        -3.439183         1.751056        -0.462401
 H        -4.785122        -0.889713        -1.464668
 H        -5.570450         0.868188        -1.086090
 H        -2.362464         0.117778        -2.921516
 H        -2.891241         1.897371        -2.886476
