19
Iteration:  2648charge 0 multiplicity 1
 C         1.359032        -0.174300        -0.062482
 C        -0.088783        -0.204758        -0.057235
 C        -1.270380        -0.045794        -0.148612
 C        -2.699490        -0.114781        -0.029951
 O        -2.995824        -0.105390         1.447918
 C        -3.412739         0.990616        -0.723055
 C        -4.680968         0.724129        -1.509694
 O        -3.873449         0.477963        -2.789652
 C        -2.864504         1.293108        -2.093449
 H         1.902516        -1.030298         0.294138
 H         1.776182         0.104514        -1.085758
 H         1.503678         0.737515         0.478845
 H        -3.257740        -1.014638        -0.507584
 H        -2.132563         0.067467         1.913791
 H        -3.437605         1.871374        -0.028378
 H        -5.203834        -0.264768        -1.275177
 H        -5.365761         1.598256        -1.501608
 H        -1.693642         1.119136        -2.418818
 H        -2.991903         2.370571        -2.432600
