19
Iteration:   260charge 0 multiplicity 1
 C         1.264058        -0.101644        -0.482419
 C        -0.171263        -0.135133        -0.203578
 C        -1.321747        -0.166980         0.194052
 C        -2.718815         0.073729         0.438272
 O        -3.219593         0.536135         1.594144
 C        -3.322703         0.929492        -0.747826
 C        -4.485592         0.322438        -1.578001
 O        -3.883443         0.522766        -2.892377
 C        -2.598155         0.872785        -2.236699
 H         1.668646         0.640380        -1.228869
 H         1.897041         0.136169         0.488001
 H         1.551953        -1.075175        -0.915912
 H        -3.171606        -0.942041         0.261747
 H        -2.920244         0.078522         2.432706
 H        -3.545091         2.000333        -0.505486
 H        -4.941950        -0.688625        -1.479018
 H        -5.452916         0.942452        -1.301154
 H        -1.863794         0.005825        -2.277032
 H        -2.030012         1.592835        -2.827284
