19
Iteration:  3667charge 0 multiplicity 1
 C         1.498045         0.009406         0.446157
 C         0.146932        -0.298351         0.075092
 C        -1.054664        -0.467406        -0.062154
 C        -2.551145        -0.236251        -0.236287
 O        -3.161232        -0.035243         1.112057
 C        -3.086914         1.047484        -1.030498
 C        -4.633190         1.047209        -1.157947
 O        -4.498691         0.680782        -2.536501
 C        -3.041463         1.018256        -2.611126
 H         1.907882         1.112315         0.470924
 H         1.657820        -0.221474         1.528955
 H         2.232830        -0.287419        -0.226150
 H        -2.967102        -1.135958        -0.601423
 H        -2.462657        -0.462946         1.662401
 H        -2.558764         1.864013        -0.631363
 H        -5.097606         0.296974        -0.494941
 H        -5.062529         2.068221        -1.225290
 H        -2.398941         0.194637        -3.004395
 H        -2.748042         1.943140        -3.297574
