19
Iteration:  3290charge 0 multiplicity 1
 C         1.264752        -0.134651        -0.665183
 C        -0.073359        -0.015411        -0.052800
 C        -1.173565         0.001721         0.519101
 C        -2.752793        -0.150550         0.315730
 O        -3.439626        -0.176148         1.540442
 C        -3.240071         0.832591        -0.755623
 C        -4.552694         0.642220        -1.639553
 O        -3.851791         0.970025        -2.863751
 C        -2.582114         0.940331        -2.174263
 H         1.600146        -1.251309        -1.004807
 H         1.383862         0.257536        -1.676462
 H         1.987779         0.240752         0.010084
 H        -2.758112        -1.080259        -0.165922
 H        -3.196605         0.683526         1.994259
 H        -3.370227         1.758119        -0.272493
 H        -4.766158        -0.451595        -1.692231
 H        -5.482077         1.168374        -1.392501
 H        -2.210349        -0.103530        -2.447725
 H        -1.917962         1.844086        -2.256042
