19
Iteration:  1682
 C         1.618141        -0.224113         0.885404
 C         0.289107        -0.064852         0.286268
 C        -0.901969        -0.017307        -0.137502
 C        -2.366653         0.012398        -0.356268
 O        -2.975682         0.031789         0.931901
 C        -3.055867         1.066010        -1.281677
 C        -4.631106         1.094939        -1.134236
 O        -4.864040         0.583993        -2.513559
 C        -3.410052         0.453216        -2.676088
 H         2.210679        -0.797690         0.190949
 H         2.052643         0.778162         1.180876
 H         1.664795        -0.987610         1.684083
 H        -2.583157        -0.939250        -0.654017
 H        -2.610398         0.625716         1.583518
 H        -2.493791         1.985796        -1.422620
 H        -5.018440         0.331238        -0.468011
 H        -4.890315         2.128290        -0.911231
 H        -3.118505        -0.599276        -2.849771
 H        -3.002446         0.935919        -3.595407
