19
Iteration:  2346
 C         1.473389         0.198768         0.517238
 C         0.118805        -0.299914         0.163963
 C        -1.067099        -0.287677        -0.082973
 C        -2.470924        -0.234441        -0.188020
 O        -3.237362         0.159348         0.972603
 C        -2.942330         0.721196        -1.214502
 C        -4.363463         1.018166        -1.033035
 O        -4.593670         0.885049        -2.438301
 C        -3.213019         0.594847        -2.711633
 H         1.684091         1.081557        -0.082773
 H         1.409762         0.265533         1.557496
 H         2.307139        -0.538417         0.435417
 H        -2.778771        -1.292985        -0.663826
 H        -2.887328        -0.244042         1.795175
 H        -2.253588         1.569308        -1.038703
 H        -4.907149         0.170675        -0.533169
 H        -4.630560         1.852152        -0.351611
 H        -3.046927        -0.338793        -3.218319
 H        -2.749159         1.393789        -3.394971
