19
Iteration:  4783charge 0 multiplicity 1
 C         1.524925         0.056920         0.371421
 C         0.076837        -0.197508         0.250408
 C        -1.081593        -0.229615        -0.050626
 C        -2.451302        -0.313985        -0.300371
 O        -3.180774        -0.631898         0.896430
 C        -3.021688         0.972490        -1.018148
 C        -4.528401         0.946874        -1.036724
 O        -4.508177         1.203846        -2.496616
 C        -3.148763         1.003868        -2.532645
 H         1.684631         0.434960         1.404263
 H         2.158876        -0.837885         0.170870
 H         1.776476         0.904239        -0.303842
 H        -2.752695        -1.040011        -1.090029
 H        -2.706396        -0.129875         1.596205
 H        -2.646748         1.791541        -0.467522
 H        -5.162492        -0.018073        -0.725839
 H        -5.133919         1.845460        -0.564820
 H        -2.730250         0.232450        -3.212917
 H        -2.625036         1.942422        -2.934712
