19
Iteration:  4908
 C         1.547452        -0.217221         0.658197
 C         0.143874        -0.188431         0.145426
 C        -1.001836        -0.085869        -0.309547
 C        -2.471976        -0.195179        -0.512398
 O        -3.107429        -0.482035         0.768381
 C        -3.155325         1.115382        -0.935920
 C        -4.663101         0.985667        -0.972426
 O        -4.524413         0.689266        -2.404974
 C        -3.122144         1.298660        -2.425236
 H         1.948001         0.808721         0.757167
 H         1.507258        -0.680224         1.664861
 H         2.212858        -0.780939        -0.037493
 H        -2.672406        -0.998621        -1.293467
 H        -2.338141        -0.552945         1.391205
 H        -2.606606         1.875446        -0.402702
 H        -5.113972         0.278193        -0.442307
 H        -4.970989         2.106855        -0.883962
 H        -2.495385         0.866284        -3.163050
 H        -3.405651         2.343935        -2.721027
