19
Iteration:  3882charge 0 multiplicity 1
 C         1.354978        -0.002367        -0.473960
 C        -0.110615        -0.237350        -0.105588
 C        -1.322390        -0.292043         0.036467
 C        -2.855518        -0.249099         0.233188
 O        -3.179563         0.102623         1.612711
 C        -3.468575         0.850761        -0.681156
 C        -4.575096         0.502667        -1.743263
 O        -3.786293         0.991887        -2.871693
 C        -2.601133         1.158406        -1.953098
 H         1.727255        -0.443967        -1.368977
 H         1.516943         1.088164        -0.518267
 H         2.177125        -0.525296         0.258640
 H        -3.173151        -1.250737         0.053820
 H        -2.921899        -0.555721         2.271225
 H        -3.488346         1.895252        -0.185087
 H        -4.616057        -0.689882        -1.837247
 H        -5.621052         0.872309        -1.636229
 H        -1.795323         0.451747        -2.016407
 H        -2.120186         2.042767        -2.148272
