19
Iteration:   474
 C         1.492738         0.004823         0.367976
 C         0.081813        -0.140105         0.027868
 C        -1.109850        -0.293294        -0.037408
 C        -2.481840        -0.084981         0.020721
 O        -3.006521         0.477077         1.216010
 C        -3.110183         0.825094        -1.093582
 C        -4.638856         0.752660        -1.310254
 O        -4.523427         0.631821        -2.653432
 C        -3.042861         0.538668        -2.550960
 H         2.215559        -0.717734        -0.050990
 H         1.743944         1.016697         0.204619
 H         1.488322        -0.265810         1.431694
 H        -3.038698        -1.014717         0.016731
 H        -2.443410         1.214212         1.444703
 H        -2.856831         1.863361        -0.760214
 H        -4.989671        -0.208397        -0.856413
 H        -5.215511         1.579462        -0.936891
 H        -2.710098        -0.469965        -2.776651
 H        -2.721448         1.185712        -3.342811
