19
Iteration:  1285charge 0 multiplicity 1
 C         1.169404        -0.443858        -0.270262
 C        -0.306820        -0.312256        -0.183457
 C        -1.488286        -0.279976        -0.210219
 C        -2.829878        -0.106457         0.303172
 O        -2.661453         0.852342         1.362173
 C        -3.864756         0.522511        -0.683003
 C        -4.026656        -0.207548        -2.075139
 O        -3.422240         0.958846        -2.732751
 C        -3.277470         1.676548        -1.476820
 H         1.610307         0.402024        -0.712313
 H         1.672119        -0.757611         0.682064
 H         1.429988        -1.212656        -0.987842
 H        -3.312345        -1.061124         0.604149
 H        -1.718820         0.769935         1.588873
 H        -4.879590         0.657236        -0.224305
 H        -3.511064        -1.232278        -2.362470
 H        -5.123189        -0.177297        -2.391582
 H        -2.263224         1.972117        -1.118744
 H        -3.756219         2.658306        -1.525735
