19
Iteration:  1603charge 0 multiplicity 1
 C         1.275610         0.301205         0.466622
 C        -0.013958        -0.127199         0.187708
 C        -1.111719        -0.559505        -0.168674
 C        -2.585003        -0.285888        -0.215481
 O        -3.050310        -0.044236         1.107175
 C        -2.872825         0.892334        -1.138487
 C        -4.314800         1.398788        -1.185740
 O        -4.570727         0.620289        -2.439611
 C        -3.150449         0.474587        -2.621717
 H         1.814922         0.513320        -0.423683
 H         1.197475         1.395938         0.886349
 H         1.819719        -0.271280         1.229208
 H        -3.078086        -1.156415        -0.457332
 H        -2.354167         0.207081         1.702499
 H        -2.024902         1.597884        -1.110427
 H        -4.908032         1.296696        -0.278534
 H        -4.396870         2.466863        -1.392693
 H        -2.876118        -0.535951        -2.917529
 H        -2.703617         1.270474        -3.337430
