19
Iteration:  2260charge 0 multiplicity 1
 C         1.476151        -0.381527         0.594986
 C         0.144267         0.091332         0.138303
 C        -1.019603         0.375432         0.011016
 C        -2.336353        -0.039670        -0.218042
 O        -2.998652        -0.214276         1.059386
 C        -3.109802         0.890056        -1.155132
 C        -4.629080         1.221896        -1.198589
 O        -4.665000         0.682472        -2.597582
 C        -3.223973         0.430977        -2.615534
 H         2.076924         0.458810         0.955098
 H         1.506900        -0.991448         1.597265
 H         2.053510        -0.825831        -0.298159
 H        -2.217529        -0.992399        -0.661260
 H        -2.244710        -0.296400         1.718661
 H        -2.645844         1.886840        -1.182151
 H        -5.377153         0.690258        -0.579254
 H        -4.870185         2.327326        -1.089759
 H        -3.223947        -0.690028        -2.665552
 H        -2.781945         1.040898        -3.402129
