19
Iteration:   637charge 0 multiplicity 1
 C         1.518014         0.069543         0.675372
 C         0.133082        -0.120430         0.307916
 C        -1.009170        -0.192454        -0.211813
 C        -2.491539        -0.085963        -0.291526
 O        -3.015534         0.146789         1.061122
 C        -2.939669         1.013908        -1.288745
 C        -4.509530         1.204529        -1.163966
 O        -4.704922         0.337151        -2.407052
 C        -3.324313         0.515131        -2.687703
 H         1.918322        -0.684523         1.383281
 H         2.149328         0.175549        -0.287053
 H         1.688142         0.970957         1.313603
 H        -3.019903        -1.073101        -0.660519
 H        -2.390159        -0.364599         1.623153
 H        -2.341559         1.883809        -1.326929
 H        -4.838099         0.630301        -0.274675
 H        -4.945561         2.215328        -1.322422
 H        -2.853178        -0.437933        -3.057108
 H        -3.086536         1.237666        -3.459058
