19
Iteration:  3499charge 0 multiplicity 1
 C         1.605106        -0.179455         0.638417
 C         0.218956        -0.072572         0.320106
 C        -0.912820        -0.193715        -0.053283
 C        -2.390464        -0.136111        -0.320242
 O        -3.175010        -0.106654         0.879000
 C        -2.986898         1.029232        -1.176490
 C        -4.551351         1.098591        -1.086532
 O        -4.744469         0.737612        -2.468747
 C        -3.315743         0.721573        -2.686209
 H         1.843462        -0.150963         1.797401
 H         1.833240        -1.189496         0.320194
 H         2.078892         0.655968         0.252300
 H        -2.650598        -1.014923        -1.061797
 H        -2.535977        -0.072129         1.621549
 H        -2.453849         1.991808        -1.064005
 H        -5.188142         0.367814        -0.438636
 H        -4.692974         2.140871        -0.758657
 H        -3.163107        -0.323562        -2.895935
 H        -3.085600         1.443569        -3.499873
