19
Iteration:  1187charge 0 multiplicity 1
 C         0.750881        -0.811083        -1.014934
 C        -0.250423        -0.381247        -0.104045
 C        -1.427914        -0.110627         0.202811
 C        -2.847158         0.048395         0.538022
 O        -3.174311         1.016899         1.584760
 C        -3.628776         0.348247        -0.717075
 C        -3.045439        -0.233255        -2.053933
 O        -3.318321         1.038841        -2.720806
 C        -3.601828         1.725141        -1.492342
 H         1.364400        -0.052182        -1.549834
 H         1.483823        -1.653812        -0.663004
 H         0.301200        -1.161471        -1.957545
 H        -3.198831        -0.870462         0.970511
 H        -2.585849         1.773259         1.335083
 H        -4.713626         0.126040        -0.509714
 H        -1.973875        -0.508615        -1.977355
 H        -3.540412        -1.050224        -2.626500
 H        -2.790913         2.414208        -1.133530
 H        -4.544209         2.258665        -1.513442
