19
Iteration:  3312charge 0 multiplicity 1
 C         1.266576        -0.057132        -0.555387
 C        -0.033038        -0.167265         0.002396
 C        -1.210828         0.052977         0.251777
 C        -2.640743        -0.184606         0.254988
 O        -3.447459        -0.098381         1.444801
 C        -3.263666         0.776513        -0.755581
 C        -4.561749         0.636565        -1.560295
 O        -3.879580         1.067255        -2.755624
 C        -2.569911         0.805771        -2.137148
 H         1.741643        -1.159363        -0.683400
 H         1.253158         0.180277        -1.623584
 H         1.798793         0.497887         0.156082
 H        -2.723241        -1.152092        -0.112252
 H        -3.453258         0.809541         1.724671
 H        -3.356383         1.768232        -0.418384
 H        -4.953596        -0.420429        -1.568889
 H        -5.405877         1.241175        -1.233437
 H        -2.205592        -0.190400        -2.432356
 H        -2.009644         1.732946        -2.354484
