19
Iteration:  1748
 C         1.350123        -0.532043         0.637729
 C         0.214526         0.122445         0.185409
 C        -0.916353         0.494220        -0.054031
 C        -2.379324         0.100202        -0.208760
 O        -2.906559         0.144810         1.115406
 C        -3.085568         0.866463        -1.215549
 C        -4.671082         0.777639        -1.122805
 O        -4.695377         0.709661        -2.635341
 C        -3.241410         0.413679        -2.671954
 H         1.514443        -1.310790        -0.099996
 H         2.331784        -0.005548         0.656962
 H         1.161683        -0.992055         1.614087
 H        -2.478664        -1.082879        -0.624438
 H        -2.129290         0.513036         1.619380
 H        -2.758777         1.932241        -1.192219
 H        -5.052634        -0.236884        -0.764764
 H        -5.304770         1.612073        -0.693076
 H        -3.056461        -0.624957        -2.857589
 H        -2.565157         0.793974        -3.472396
