19
Iteration:   933charge 0 multiplicity 1
 C         1.260007        -0.180188        -0.195512
 C        -0.219293        -0.175580        -0.353984
 C        -1.437742        -0.381164        -0.141607
 C        -2.773983        -0.165681         0.358722
 O        -2.771036         0.584984         1.533631
 C        -3.575672         0.708350        -0.659689
 C        -4.308915         0.026848        -1.843735
 O        -3.658665         0.707862        -2.877913
 C        -3.000914         1.614874        -1.897304
 H         1.517914         0.340468         0.729603
 H         1.579350        -1.300998         0.051695
 H         1.887232         0.172481        -1.038950
 H        -3.290556        -1.195351         0.556885
 H        -3.541407         0.347889         2.032887
 H        -4.203172         1.267080         0.006048
 H        -4.157235        -1.021223        -2.032488
 H        -5.410000         0.231126        -1.721028
 H        -1.918718         1.776680        -2.064697
 H        -3.590878         2.496606        -1.748204
