19
Iteration:  3714
 C         1.489693        -0.082244         0.153572
 C         0.033643        -0.083862         0.047428
 C        -1.213779        -0.153989        -0.066279
 C        -2.607581        -0.213335        -0.070122
 O        -3.189238        -0.102903         1.258862
 C        -3.153561         0.965197        -0.863577
 C        -4.696894         0.896662        -1.264335
 O        -4.241094         0.865700        -2.696282
 C        -2.841735         0.823916        -2.424361
 H         2.123785         0.683410        -0.303774
 H         1.867997         0.013181         1.174940
 H         2.032595        -0.850487        -0.497775
 H        -2.927117        -1.161562        -0.558650
 H        -3.047070        -0.920053         1.789618
 H        -2.918127         1.982336        -0.527939
 H        -5.144852         0.024984        -0.971791
 H        -5.165136         1.853745        -0.927307
 H        -2.479675        -0.096781        -2.839444
 H        -2.292566         1.600165        -3.012339
