19
Iteration:  2121
 C         1.360686        -0.111794         0.296325
 C        -0.027520        -0.136206        -0.068892
 C        -1.220025        -0.218617        -0.245749
 C        -2.634812        -0.112332         0.078940
 O        -2.747441         0.545635         1.347530
 C        -3.312866         0.911323        -0.920109
 C        -4.736457         0.617704        -1.388240
 O        -4.254773         0.715706        -2.792994
 C        -2.917350         0.588986        -2.370597
 H         1.347150        -0.038687         1.407456
 H         1.830376        -1.135773         0.162740
 H         1.839738         0.737060        -0.183156
 H        -3.078126        -1.024519         0.060419
 H        -2.182813        -0.029035         1.911695
 H        -3.111291         1.915986        -0.603318
 H        -5.233636        -0.435629        -1.044919
 H        -5.494236         1.458026        -1.362323
 H        -2.411284        -0.337196        -2.559566
 H        -2.315966         1.413058        -2.778981
