19
Iteration:  2358charge 0 multiplicity 1
 C         1.417489         0.229542         0.497852
 C         0.134735        -0.306237         0.113341
 C        -1.072958        -0.388113        -0.020979
 C        -2.533467        -0.350942        -0.165445
 O        -3.186428         0.185492         1.011643
 C        -2.840924         0.757834        -1.191490
 C        -4.385040         0.942887        -1.012648
 O        -4.602447         0.961102        -2.519572
 C        -3.221800         0.626070        -2.719902
 H         1.640136         1.121792        -0.055903
 H         1.394599         0.804840         1.409741
 H         2.326308        -0.434581         0.361367
 H        -3.070695        -1.404120        -0.268513
 H        -2.731231        -0.183652         1.812803
 H        -2.307505         1.689593        -1.001666
 H        -4.903154         0.067500        -0.576419
 H        -4.738721         1.949174        -0.740898
 H        -3.107432        -0.361155        -3.161604
 H        -2.579217         1.429219        -3.195942
