19
Iteration:   548
 C         1.560293        -0.380460         0.731676
 C         0.230794         0.062351         0.385439
 C        -0.883808         0.367943        -0.061229
 C        -2.386193         0.159364        -0.324830
 O        -2.835932         0.150323         1.030310
 C        -3.139223         1.003994        -1.288825
 C        -4.710711         0.749975        -1.244157
 O        -4.817473         0.657773        -2.582132
 C        -3.342265         0.265718        -2.608764
 H         1.709149        -1.421481         0.542703
 H         2.360641         0.253833         0.062292
 H         1.748973        -0.257653         1.837276
 H        -2.567673        -0.863346        -0.757010
 H        -2.164664         0.781866         1.350528
 H        -2.806197         1.986678        -1.185026
 H        -4.891137        -0.197046        -0.677926
 H        -5.367583         1.583346        -0.902634
 H        -3.437593        -0.861044        -2.525413
 H        -2.795603         0.492698        -3.520661
