19
Iteration:   261charge 0 multiplicity 1
 C         1.266201        -0.096242        -0.501054
 C        -0.176838        -0.128901        -0.185895
 C        -1.318497        -0.174845         0.203338
 C        -2.716488         0.069578         0.431763
 O        -3.228562         0.535240         1.592998
 C        -3.313890         0.930951        -0.749954
 C        -4.486165         0.329280        -1.573003
 O        -3.886912         0.518875        -2.889363
 C        -2.589292         0.876114        -2.241508
 H         1.655950         0.591391        -1.214884
 H         1.907357         0.159826         0.480465
 H         1.526497        -1.072157        -0.931479
 H        -3.190706        -0.951519         0.265290
 H        -2.924121         0.092200         2.422694
 H        -3.531404         1.981031        -0.516005
 H        -4.949915        -0.699085        -1.490906
 H        -5.456561         0.946965        -1.296334
 H        -1.855783        -0.012782        -2.301791
 H        -2.021217         1.596711        -2.797646
