19
Iteration:  1727
 C         1.411573        -0.509122         0.712657
 C         0.217339         0.121146         0.288782
 C        -0.876979         0.508986        -0.191559
 C        -2.318802         0.094430        -0.225181
 O        -2.869173         0.015304         1.125702
 C        -3.098529         0.884170        -1.207593
 C        -4.645273         0.918087        -1.233158
 O        -4.788541         0.685471        -2.611965
 C        -3.351101         0.374413        -2.670170
 H         1.720839        -1.397369         0.101244
 H         2.259054         0.117306         1.003304
 H         1.133964        -1.069061         1.634027
 H        -2.228734        -0.947708        -0.568263
 H        -2.221849         0.423575         1.679110
 H        -2.940030         1.934480        -1.258479
 H        -4.980128         0.092626        -0.569471
 H        -5.090766         1.887556        -1.047575
 H        -3.088152        -0.622780        -2.925822
 H        -2.818801         0.837751        -3.487902
