19
Iteration:  3191charge 0 multiplicity 1
 C         1.322489        -0.057191        -0.393343
 C        -0.061172        -0.279863        -0.123625
 C        -1.273438        -0.256444         0.074027
 C        -2.719042        -0.160398         0.218779
 O        -3.257969         0.037213         1.600167
 C        -3.359595         0.956734        -0.743363
 C        -4.601309         0.681635        -1.639296
 O        -3.760519         0.571181        -2.831928
 C        -2.765869         1.309161        -2.130788
 H         1.794431        -0.479150        -1.361799
 H         1.631887         0.959081        -0.483078
 H         1.801462        -0.525961         0.399883
 H        -3.209905        -1.225883        -0.121890
 H        -2.606618        -0.001878         2.338945
 H        -3.323448         1.776684        -0.064676
 H        -5.139085        -0.257048        -1.518668
 H        -5.369089         1.445286        -1.589786
 H        -1.642441         0.957548        -2.287050
 H        -2.851314         2.439174        -2.272594
