19
Iteration:  3592
 C         1.440737        -0.271976         0.753150
 C         0.199183         0.020243         0.131333
 C        -0.944770        -0.154094        -0.180691
 C        -2.389511        -0.016011        -0.359054
 O        -3.061043        -0.325393         0.872688
 C        -2.967045         1.179262        -1.180192
 C        -4.554677         1.233275        -1.081319
 O        -4.726942         0.561900        -2.374068
 C        -3.266713         0.726647        -2.624842
 H         1.846603         0.482226         1.480537
 H         1.369806        -1.261631         1.320321
 H         2.415375        -0.175743         0.106905
 H        -2.793110        -0.986182        -0.979705
 H        -2.650540         0.171995         1.601506
 H        -2.578315         2.181878        -0.995138
 H        -5.153174         0.703361        -0.387396
 H        -4.978976         2.313900        -1.131558
 H        -2.802188        -0.241036        -2.801560
 H        -2.994944         1.561566        -3.230339
