19
Iteration:  1896charge 0 multiplicity 1
 C         1.245179        -0.027813        -0.255591
 C        -0.182241        -0.128481        -0.237538
 C        -1.372649        -0.168420         0.005550
 C        -2.789121        -0.070278         0.221432
 O        -3.080942         0.445760         1.597854
 C        -3.173906         0.934730        -0.813230
 C        -4.546502         0.981294        -1.577465
 O        -4.015851         0.374106        -2.756822
 C        -2.605339         0.480685        -2.232752
 H         1.805982        -0.979360        -0.027932
 H         1.527611         0.683254        -1.064601
 H         1.613537         0.506545         0.640807
 H        -3.312185        -1.113067         0.316782
 H        -2.437714        -0.022834         2.144594
 H        -2.870208         1.915582        -0.338630
 H        -5.249631         0.217684        -1.150142
 H        -4.907757         2.020823        -1.684001
 H        -2.154834        -0.503083        -2.390241
 H        -2.083434         1.292421        -2.751750
