19
Iteration:  4226charge 0 multiplicity 1
 C         1.475384         0.183306         0.626504
 C         0.104311        -0.220897         0.228859
 C        -1.005225        -0.252629        -0.187759
 C        -2.496766        -0.430366        -0.440392
 O        -3.069609        -0.529089         0.845020
 C        -2.965795         0.783670        -1.069876
 C        -4.457637         1.249308        -0.983894
 O        -4.669808         1.193418        -2.404254
 C        -3.259822         0.853558        -2.573033
 H         1.483067         1.069863         1.232456
 H         2.017217        -0.540921         1.198667
 H         2.125165         0.336371        -0.235659
 H        -2.684666        -1.352345        -1.114408
 H        -2.595195        -1.169494         1.363562
 H        -2.459226         1.728922        -0.691569
 H        -5.142180         0.588738        -0.342968
 H        -4.462681         2.250707        -0.658436
 H        -3.260392         0.009895        -3.319639
 H        -2.648765         1.608101        -3.222472
