19
Iteration:  3448
 C         1.452505        -0.010432         0.489094
 C         0.114173        -0.154639         0.016024
 C        -1.085083        -0.270912        -0.170931
 C        -2.514010        -0.223039        -0.143477
 O        -3.042563        -0.047686         1.248235
 C        -3.068151         0.937459        -1.048263
 C        -4.569455         1.075074        -1.198057
 O        -4.535801         0.889915        -2.659963
 C        -3.058322         0.671058        -2.593677
 H         1.482498        -0.261570         1.592438
 H         2.185941        -0.679803        -0.042544
 H         1.734817         1.090823         0.540502
 H        -2.833253        -1.077843        -0.630023
 H        -3.022246        -0.990592         1.585541
 H        -2.589488         1.848895        -0.799625
 H        -5.070328         0.361403        -0.564278
 H        -5.051234         2.018515        -0.813338
 H        -2.964517        -0.384473        -2.878387
 H        -2.593071         1.465322        -3.146770
