19
Iteration:  3974
 C         1.547787        -0.224425        -0.268154
 C        -0.010815        -0.248676        -0.026587
 C        -1.208686        -0.150889         0.057758
 C        -2.724373        -0.120621         0.076487
 O        -3.201351        -0.055208         1.451306
 C        -3.504621         1.011586        -0.712401
 C        -4.629474         0.517875        -1.623408
 O        -3.911360         0.803273        -2.817326
 C        -2.843491         1.363721        -2.069592
 H         1.938120        -1.273193        -0.329908
 H         1.654618         0.452478        -1.122006
 H         2.103214         0.037409         0.736257
 H        -3.018601        -0.974005        -0.452305
 H        -2.419254        -0.427068         1.917160
 H        -3.656805         1.723130         0.042952
 H        -4.833006        -0.608375        -1.660621
 H        -5.588496         1.094616        -1.457751
 H        -1.872814         0.999083        -2.255594
 H        -2.729544         2.383698        -2.293880
