19
Iteration:  3374charge 0 multiplicity 1
 C         1.377001         0.079909        -0.048241
 C        -0.030889        -0.190555        -0.081362
 C        -1.224763        -0.381884         0.117874
 C        -2.694764        -0.313194         0.124553
 O        -3.170091         0.019002         1.471858
 C        -3.146308         0.770658        -0.917381
 C        -4.615446         0.858697        -1.413578
 O        -4.163472         1.072609        -2.794676
 C        -2.773481         0.792026        -2.418297
 H         1.817117        -0.602580         0.632769
 H         1.824515         0.048352        -1.064692
 H         1.621908         1.147246         0.386364
 H        -3.156567        -1.384017        -0.233890
 H        -2.328364         0.296399         1.829622
 H        -2.952518         1.777723        -0.354199
 H        -5.238869        -0.078264        -1.365045
 H        -5.276095         1.635362        -0.979711
 H        -2.282469        -0.163113        -2.852217
 H        -2.103609         1.627656        -2.719987
