19
Iteration:  1823charge 0 multiplicity 1
 C         1.515378        -0.182049         0.216313
 C         0.077604        -0.392909         0.232758
 C        -1.084960        -0.095546         0.121826
 C        -2.505600        -0.037127         0.009083
 O        -2.984756         0.621402         1.240821
 C        -3.189798         0.884173        -1.081733
 C        -4.671143         0.615643        -1.327783
 O        -4.510352         0.574799        -2.744329
 C        -3.036145         0.752242        -2.603826
 H         1.985314        -1.065546        -0.068224
 H         1.923770         0.748450        -0.361969
 H         1.935769        -0.172298         1.244345
 H        -2.842496        -0.969121        -0.060088
 H        -2.856294         0.113646         2.035096
 H        -2.932505         1.939506        -0.877865
 H        -4.991180        -0.324336        -0.919274
 H        -5.284709         1.544478        -1.085099
 H        -2.340485        -0.031996        -3.048849
 H        -2.657736         1.710573        -3.130684
