19
Iteration:  3103
 C         1.484615        -0.276455         0.213989
 C         0.064383        -0.197085        -0.218733
 C        -1.127364         0.034854         0.009017
 C        -2.545901        -0.094647        -0.011208
 O        -3.031514        -0.008591         1.338229
 C        -3.337703         0.975198        -0.808486
 C        -4.770276         0.778251        -1.445312
 O        -4.200440         0.532515        -2.747444
 C        -2.945093         1.192379        -2.325710
 H         2.176720         0.144947        -0.615270
 H         1.670341         0.466721         0.964462
 H         1.774223        -1.189818         0.636189
 H        -2.639022        -1.042448        -0.438089
 H        -2.822331        -0.913570         1.681190
 H        -3.244422         1.895837        -0.274232
 H        -5.495178        -0.045553        -1.331267
 H        -5.355339         1.717640        -1.289625
 H        -2.029504         0.557263        -2.632109
 H        -2.904791         2.229648        -2.646501
