19
Iteration:  3647charge 0 multiplicity 1
 C         1.501875        -0.017969         0.554700
 C         0.095255        -0.290035         0.196186
 C        -1.044912        -0.406375        -0.145098
 C        -2.527643        -0.185176        -0.286651
 O        -3.075178        -0.092174         1.019856
 C        -2.985883         1.076364        -1.068476
 C        -4.531125         1.142409        -1.123037
 O        -4.575401         0.586326        -2.521562
 C        -3.208017         0.942678        -2.591667
 H         1.693271         1.105916         0.751860
 H         1.758376        -0.453751         1.559457
 H         2.132612        -0.314890        -0.372734
 H        -3.101422        -1.036160        -0.892787
 H        -2.352793        -0.171664         1.633451
 H        -2.529809         1.948608        -0.603744
 H        -5.082763         0.400709        -0.668142
 H        -4.907852         2.215920        -1.139336
 H        -2.508591         0.456258        -3.200150
 H        -3.007996         1.936876        -3.003476
