19
Iteration:  4256
 C         1.498715         0.134065         0.635734
 C         0.152403        -0.083194         0.156004
 C        -0.959137        -0.365283        -0.107522
 C        -2.419539        -0.358322        -0.385497
 O        -3.208786        -0.591369         0.871805
 C        -2.865575         0.889249        -1.127315
 C        -4.452769         1.095002        -1.006592
 O        -4.703674         1.302665        -2.426225
 C        -3.318454         0.839273        -2.596894
 H         1.688082         1.148115         0.873702
 H         1.771306        -0.608434         1.357789
 H         2.351273        -0.017619        -0.165238
 H        -2.646092        -1.241194        -1.106268
 H        -2.607713        -0.727206         1.648013
 H        -2.418232         1.895973        -0.742020
 H        -4.930782         0.290212        -0.635707
 H        -4.766043         1.934761        -0.356807
 H        -3.437702        -0.161775        -3.039793
 H        -2.759050         1.452147        -3.313397
