19
Iteration:  4518charge 0 multiplicity 1
 C         1.417953        -0.060746        -0.336967
 C        -0.075195         0.054784        -0.131521
 C        -1.266483        -0.040765         0.086486
 C        -2.727803        -0.235599        -0.006018
 O        -3.293885        -0.764159         1.126764
 C        -3.408415         1.054073        -0.539493
 C        -4.614614         0.753320        -1.483814
 O        -3.759440         0.739841        -2.634573
 C        -2.730664         1.500266        -1.954423
 H         1.557636        -0.883055        -0.992702
 H         1.927070         0.828442        -0.630515
 H         1.985130        -0.328716         0.635991
 H        -2.825630        -1.013938        -0.761860
 H        -3.195975        -0.200188         1.898533
 H        -3.327233         1.858765         0.136711
 H        -5.039439        -0.163759        -1.513947
 H        -5.387193         1.535610        -1.430642
 H        -1.749815         0.982815        -2.137284
 H        -2.933858         2.604516        -2.214298
