19
Iteration:  1474charge 0 multiplicity 1
 C         1.410720        -0.070580        -0.368048
 C         0.057300        -0.048578         0.032976
 C        -1.157258        -0.188333         0.385303
 C        -2.617633        -0.053878         0.223917
 O        -3.457684        -0.060492         1.347383
 C        -3.205415         0.927022        -0.799347
 C        -4.569695         0.545082        -1.515681
 O        -4.063331         0.998722        -2.777041
 C        -2.761928         0.804346        -2.317404
 H         1.465444         0.257534        -1.423550
 H         1.984709         0.593666         0.203908
 H         2.024613        -0.962785        -0.455862
 H        -2.841458        -1.141794        -0.139154
 H        -3.047010         0.601913         1.949459
 H        -3.392782         1.963384        -0.418908
 H        -4.751901        -0.545280        -1.661870
 H        -5.360459         1.159777        -1.109322
 H        -2.359602        -0.217062        -2.633398
 H        -1.975654         1.462165        -2.650817
