19
Iteration:  3597charge 0 multiplicity 1
 C         1.463191        -0.246168         0.745566
 C         0.164033        -0.012956         0.151015
 C        -1.015914        -0.147557        -0.210897
 C        -2.385898        -0.043533        -0.386415
 O        -3.045645        -0.302690         0.887046
 C        -2.982490         1.157895        -1.184886
 C        -4.554386         1.226314        -1.072642
 O        -4.693877         0.567697        -2.377832
 C        -3.263538         0.741243        -2.580108
 H         1.773210         0.467582         1.504607
 H         1.334091        -1.124475         1.329568
 H         2.248025        -0.207793        -0.021308
 H        -2.682202        -0.823347        -0.970369
 H        -2.633021         0.145154         1.664258
 H        -2.500744         2.154101        -0.959290
 H        -5.009013         0.605480        -0.216454
 H        -4.848498         2.232611        -1.228778
 H        -2.748939        -0.210293        -3.011115
 H        -2.922910         1.560684        -3.314424
