19
Iteration:  1545charge 0 multiplicity 1
 C         1.400656         0.356393         0.063590
 C        -0.015540        -0.061078        -0.069924
 C        -1.194330        -0.513653         0.098122
 C        -2.699367        -0.344526         0.044159
 O        -3.293756        -0.195952         1.308988
 C        -2.962243         0.922875        -0.907843
 C        -4.423308         1.330561        -1.349184
 O        -4.307113         0.774544        -2.685285
 C        -2.914853         0.473287        -2.413370
 H         1.764619         0.499700        -0.925573
 H         1.561384         1.276968         0.672867
 H         2.140912        -0.372859         0.377151
 H        -3.299993        -1.171009        -0.400267
 H        -2.671092         0.380532         1.816349
 H        -2.237976         1.660167        -0.582380
 H        -5.221628         0.866528        -0.765657
 H        -4.418524         2.425435        -1.596824
 H        -2.773531        -0.606037        -2.490709
 H        -2.246899         0.956270        -3.192261
