19
Iteration:  1440charge 0 multiplicity 1
 C         1.369220        -0.289040        -0.376413
 C        -0.043116        -0.066708        -0.037723
 C        -1.252316         0.183323         0.191715
 C        -2.685165        -0.102426         0.237267
 O        -3.352285         0.034113         1.488036
 C        -3.339775         0.759531        -0.810172
 C        -4.461329         0.295953        -1.617978
 O        -3.983521         0.982124        -2.764774
 C        -2.667037         1.087418        -2.207805
 H         1.510247         0.259212        -1.294180
 H         1.931556         0.280703         0.356048
 H         1.625708        -1.357068        -0.393908
 H        -2.701379        -1.211185        -0.095953
 H        -2.769446         0.424312         2.195848
 H        -3.431113         1.728142        -0.244394
 H        -4.709889        -0.748146        -1.826730
 H        -5.442724         0.602990        -1.275029
 H        -1.976912         0.353970        -2.730483
 H        -2.422538         2.160754        -2.326243
