19
Iteration:   794charge 0 multiplicity 1
 C         1.279615         0.001961        -0.466973
 C        -0.049149        -0.056577         0.010186
 C        -1.152375         0.106363         0.350112
 C        -2.612438        -0.096239         0.267492
 O        -3.383575         0.071568         1.449042
 C        -3.198344         0.826850        -0.855919
 C        -4.538624         0.620627        -1.498767
 O        -4.058257         0.908989        -2.808432
 C        -2.642990         0.608921        -2.268888
 H         1.997705        -0.173427         0.514359
 H         1.575616        -0.851589        -1.020364
 H         1.547654         0.854830        -1.113767
 H        -2.700261        -1.245511        -0.027087
 H        -3.625045        -0.821639         1.616580
 H        -2.991101         1.886268        -0.462588
 H        -4.786469        -0.475533        -1.353587
 H        -5.421699         1.255425        -1.229678
 H        -2.401966        -0.427048        -2.569272
 H        -1.866594         1.344076        -2.564584
