19
Iteration:   570charge 0 multiplicity 1
 C         1.559756        -0.383394         0.775607
 C         0.289068         0.095600         0.311908
 C        -0.821539         0.373729        -0.072390
 C        -2.258695         0.159755        -0.224386
 O        -3.024913         0.146593         0.985219
 C        -3.143336         0.934546        -1.399104
 C        -4.595612         0.866731        -1.047179
 O        -4.847783         0.554151        -2.589264
 C        -3.449233         0.353177        -2.746442
 H         1.667400        -1.422185         0.879560
 H         2.456657         0.048924         0.123454
 H         1.681571        -0.025644         1.834294
 H        -2.244588        -0.926049        -0.582261
 H        -2.316834         0.027569         1.673454
 H        -2.698604         1.855159        -1.342118
 H        -4.866240        -0.083429        -0.552618
 H        -5.156219         1.750577        -0.702563
 H        -3.246139        -0.762878        -2.711072
 H        -3.004990         0.699089        -3.670781
