19
Iteration:  3307charge 0 multiplicity 1
 C         1.311751        -0.102454        -0.595889
 C        -0.061349        -0.153492        -0.020597
 C        -1.213633         0.079108         0.341463
 C        -2.631509        -0.196220         0.248273
 O        -3.449251        -0.116325         1.460656
 C        -3.269616         0.800655        -0.759047
 C        -4.577344         0.593513        -1.575034
 O        -3.871554         1.071307        -2.790968
 C        -2.575141         0.829990        -2.120434
 H         1.666977        -1.048739        -0.688570
 H         1.122386         0.299506        -1.627923
 H         1.946153         0.532823         0.155826
 H        -2.854520        -1.330646        -0.004669
 H        -3.433173         0.825228         1.816069
 H        -3.278669         1.919401        -0.398456
 H        -5.092602        -0.380862        -1.579462
 H        -5.409263         1.299810        -1.325459
 H        -2.065933        -0.127067        -2.364942
 H        -1.972801         1.678534        -2.433416
