19
Iteration:   184charge 0 multiplicity 1
 C         1.488881        -0.355848         0.040187
 C         0.057636        -0.056762         0.113466
 C        -1.175325        -0.152359         0.040217
 C        -2.697959         0.011472         0.187433
 O        -2.845652         0.624272         1.417131
 C        -3.481343         0.804213        -0.920234
 C        -4.685016         0.102905        -1.610243
 O        -4.202380         0.656237        -2.867954
 C        -2.962346         1.177106        -2.341971
 H         1.992000         0.553338        -0.026744
 H         1.950978        -0.978838         0.924844
 H         1.817375        -1.027064        -0.770216
 H        -3.238057        -0.974181         0.351496
 H        -1.971666         0.567071         1.776120
 H        -3.890638         1.761924        -0.493810
 H        -4.568213        -1.023086        -1.539346
 H        -5.736348         0.616446        -1.389651
 H        -2.023884         0.572049        -2.735074
 H        -2.806064         2.250702        -2.517984
