19
Iteration:  1058
 C         1.010091        -0.623218        -0.736506
 C        -0.327540        -0.373286        -0.290410
 C        -1.487130        -0.178793         0.062726
 C        -2.854681         0.006000         0.439755
 O        -2.817964         1.064194         1.538866
 C        -3.759111         0.303912        -0.705750
 C        -3.547927        -0.290247        -2.165916
 O        -3.174337         1.050371        -2.689356
 C        -3.579203         1.667241        -1.393654
 H         1.843577         0.086388        -0.352861
 H         1.407231        -1.519017        -0.433335
 H         1.028259        -0.812886        -1.815393
 H        -3.246959        -0.964048         0.895388
 H        -3.698316         1.422606         1.541838
 H        -4.797136         0.137543        -0.296756
 H        -2.851293        -1.096835        -2.226878
 H        -4.553712        -0.661184        -2.499170
 H        -2.832636         2.385910        -1.020185
 H        -4.542653         2.244514        -1.422034
