19
Iteration:   814charge 0 multiplicity 1
 C         1.343788        -0.186380        -0.461085
 C        -0.076837         0.130960        -0.146019
 C        -1.259549         0.197584         0.328813
 C        -2.656121        -0.163105         0.310575
 O        -3.421635         0.141751         1.477267
 C        -3.152441         0.790635        -0.845408
 C        -4.513396         0.343476        -1.507740
 O        -3.941653         0.973641        -2.718291
 C        -2.651400         0.771350        -2.242656
 H         2.174475        -0.173355         0.295460
 H         1.482676        -1.097692        -0.951022
 H         1.666323         0.554606        -1.213140
 H        -2.745385        -1.225408        -0.022519
 H        -4.030977        -0.619201         1.658828
 H        -3.247737         1.852534        -0.636597
 H        -4.774415        -0.715654        -1.762826
 H        -5.442458         0.839714        -1.054348
 H        -2.380101        -0.259764        -2.604853
 H        -2.005851         1.567720        -2.597140
