19
Iteration:  1873
 C         1.337982        -0.017945        -0.074185
 C        -0.148714        -0.178164        -0.127825
 C        -1.318876        -0.390649         0.057580
 C        -2.743284        -0.048633         0.124568
 O        -2.985481         0.573144         1.386220
 C        -3.172553         0.947920        -0.891889
 C        -4.629382         0.824406        -1.416387
 O        -4.098562         0.434414        -2.760586
 C        -2.740389         0.620973        -2.302992
 H         1.939220        -1.000767        -0.095947
 H         1.548627         0.712443        -0.831705
 H         1.777980         0.403662         0.834993
 H        -3.354322        -1.033253         0.214149
 H        -2.615702        -0.052988         2.070182
 H        -2.876612         1.954714        -0.513842
 H        -5.291720         0.085429        -0.836621
 H        -5.076493         1.786728        -1.600886
 H        -2.217631        -0.354445        -2.388122
 H        -2.215942         1.442379        -2.818103
