19
Iteration:  3112
 C         1.431151        -0.233482         0.178038
 C         0.071174        -0.182908        -0.223655
 C        -1.113974         0.004777        -0.031640
 C        -2.605464        -0.108067         0.002547
 O        -2.983377        -0.013668         1.369870
 C        -3.356407         1.002285        -0.799163
 C        -4.823177         0.758043        -1.470764
 O        -4.120138         0.534413        -2.770552
 C        -2.895450         1.167185        -2.275688
 H         1.984293        -0.190783        -0.729433
 H         1.493106         0.505655         0.906128
 H         1.743042        -1.138427         0.527813
 H        -2.960257        -1.095131        -0.479457
 H        -2.957341        -0.756059         2.009788
 H        -3.282445         1.891789        -0.088478
 H        -5.381558        -0.063326        -1.027287
 H        -5.352382         1.681896        -1.607463
 H        -1.992744         0.764153        -2.798596
 H        -2.833727         2.326955        -2.389960
