19
Iteration:  4210charge 0 multiplicity 1
 C         1.431189         0.163130         0.635376
 C         0.103417        -0.180612         0.226631
 C        -0.962884        -0.370786        -0.252056
 C        -2.400695        -0.449384        -0.422065
 O        -3.078743        -0.531640         0.862199
 C        -3.003234         0.893064        -1.067343
 C        -4.499999         1.319567        -0.963838
 O        -4.668522         1.135161        -2.435404
 C        -3.247469         0.865539        -2.564620
 H         1.392014         1.140122         1.227412
 H         2.005121        -0.770457         0.947647
 H         2.062798         0.623483        -0.214909
 H        -2.652562        -1.463837        -1.047363
 H        -2.749128        -1.246558         1.421953
 H        -2.229370         1.648350        -0.720630
 H        -5.190196         0.743356        -0.360279
 H        -4.835708         2.385240        -0.670920
 H        -2.857524        -0.099016        -2.946674
 H        -2.756865         1.645814        -3.105747
