19
Iteration:  1693charge 0 multiplicity 1
 C         1.601569        -0.333786         0.843747
 C         0.289922         0.026002         0.311500
 C        -0.844417         0.053023        -0.094259
 C        -2.346703         0.085912        -0.357391
 O        -2.919888        -0.004969         0.959134
 C        -3.130843         1.040858        -1.289062
 C        -4.688413         1.054962        -1.198291
 O        -4.823299         0.627631        -2.507858
 C        -3.397750         0.391257        -2.680416
 H         2.227062        -0.844161         0.142918
 H         2.261384         0.477029         1.263970
 H         1.252869        -0.878935         1.737955
 H        -2.612178        -0.782958        -0.837180
 H        -2.361090         0.618729         1.407864
 H        -2.711202         2.043077        -1.202354
 H        -5.175116         0.450983        -0.413642
 H        -5.240865         2.016984        -1.127116
 H        -3.243313        -0.678641        -2.613305
 H        -3.024885         0.954553        -3.546855
