19
Iteration:  3292charge 0 multiplicity 1
 C         1.275280        -0.140447        -0.653341
 C        -0.070416        -0.035182        -0.058843
 C        -1.182066         0.019963         0.521556
 C        -2.756402        -0.149635         0.311869
 O        -3.437835        -0.168014         1.533131
 C        -3.236798         0.830438        -0.764487
 C        -4.571012         0.626454        -1.629703
 O        -3.853939         0.980073        -2.859035
 C        -2.585401         0.940341        -2.169158
 H         1.659810        -1.209524        -0.981725
 H         1.393428         0.310764        -1.651510
 H         2.039536         0.299347        -0.077076
 H        -2.747815        -1.188368        -0.211774
 H        -3.224788         0.678613         1.945108
 H        -3.311420         1.741624        -0.206330
 H        -4.788021        -0.443061        -1.726037
 H        -5.468168         1.237982        -1.400300
 H        -2.208598        -0.166233        -2.440387
 H        -1.865783         1.805730        -2.237530
