19
Iteration:  4415charge 0 multiplicity 1
 C         1.549718         0.006049         0.213482
 C         0.097772        -0.133207        -0.045586
 C        -1.092282        -0.314497        -0.116079
 C        -2.575865        -0.296963        -0.114819
 O        -3.123880        -0.472444         1.155449
 C        -3.242320         0.993221        -0.774920
 C        -4.690056         0.687432        -1.320496
 O        -4.323912         1.060163        -2.715280
 C        -2.947034         1.383949        -2.222621
 H         2.052809         0.276276        -0.775219
 H         1.779420         0.791701         1.001499
 H         1.910591        -0.889708         0.595277
 H        -2.909768        -1.156206        -0.746606
 H        -3.168600        -1.438152         1.356045
 H        -3.220205         1.829300        -0.070890
 H        -5.088381        -0.259193        -1.092862
 H        -5.338333         1.374700        -0.938823
 H        -2.181410         0.905659        -2.776591
 H        -2.583363         2.404543        -2.553909
