19
Iteration:  4229
 C         1.484059         0.179462         0.622843
 C         0.114980        -0.220050         0.231963
 C        -1.020900        -0.252196        -0.184450
 C        -2.515293        -0.428323        -0.437576
 O        -3.075816        -0.539303         0.846925
 C        -2.963871         0.795049        -1.092813
 C        -4.447423         1.233351        -0.974629
 O        -4.655868         1.206402        -2.394302
 C        -3.262762         0.848358        -2.610986
 H         1.507387         1.218491         1.164237
 H         2.044940        -0.641668         1.203653
 H         2.201326         0.350043        -0.126939
 H        -2.631416        -1.237253        -1.012918
 H        -2.580504        -1.155568         1.430815
 H        -2.549485         1.619088        -0.674714
 H        -5.136779         0.534433        -0.239037
 H        -4.614798         2.328353        -0.622148
 H        -3.248847         0.046267        -3.341570
 H        -2.674770         1.546408        -3.211271
