19
Iteration:  2239charge 0 multiplicity 1
 C         1.542052        -0.407140         0.575286
 C         0.226117         0.131680         0.150287
 C        -0.987717         0.286249        -0.001706
 C        -2.389254         0.002007        -0.225419
 O        -3.127924        -0.100003         1.035640
 C        -3.043163         1.027729        -1.162546
 C        -4.594820         1.007993        -1.166541
 O        -4.696938         0.690303        -2.574348
 C        -3.211379         0.455386        -2.612240
 H         2.126152         0.190200         1.211602
 H         1.315036        -1.249707         1.350986
 H         2.055288        -0.765846        -0.364193
 H        -2.494345        -0.922126        -0.831159
 H        -2.542343        -0.139692         1.787786
 H        -2.483170         1.968280        -1.148612
 H        -4.968041         0.255776        -0.479179
 H        -5.093570         1.982204        -1.016936
 H        -3.099221        -0.693478        -2.687510
 H        -2.843396         1.052226        -3.423235
