19
Iteration:  3283charge 0 multiplicity 1
 C         1.224809        -0.150804        -0.695733
 C        -0.078455         0.039952        -0.044593
 C        -1.183005        -0.052225         0.477725
 C        -2.687256        -0.127914         0.335101
 O        -3.447643        -0.190778         1.563416
 C        -3.270993         0.870518        -0.745543
 C        -4.488411         0.629360        -1.649821
 O        -3.853027         0.959313        -2.874359
 C        -2.580378         0.937376        -2.163196
 H         1.258174        -1.215762        -0.789855
 H         1.306362         0.375795        -1.674508
 H         1.935736         0.097905         0.116980
 H        -2.910565        -1.257422        -0.097609
 H        -3.170846         0.556426         2.117605
 H        -3.395511         1.947583        -0.412080
 H        -4.763575        -0.434294        -1.591814
 H        -5.464101         1.115834        -1.433532
 H        -1.875567         0.063732        -2.494806
 H        -2.052928         1.860546        -2.441690
