19
Iteration:  4310charge 0 multiplicity 1
 C         1.614338         0.012354         0.529837
 C         0.183273        -0.103443         0.260231
 C        -1.012014        -0.056345        -0.127563
 C        -2.452544        -0.416218        -0.269813
 O        -3.086547        -0.669597         0.941832
 C        -3.088519         0.790490        -1.094227
 C        -4.599612         0.993685        -1.064198
 O        -4.587311         1.426742        -2.482100
 C        -3.228460         0.879729        -2.658885
 H         1.957033         1.019551         0.262452
 H         1.757954        -0.161520         1.608189
 H         2.232460        -0.748115        -0.188535
 H        -2.608321        -1.271390        -0.789744
 H        -3.179024         0.221223         1.387717
 H        -2.654921         1.708350        -0.565406
 H        -5.080471        -0.090688        -1.077366
 H        -5.180116         1.594760        -0.199045
 H        -3.464748        -0.063430        -3.078903
 H        -2.710444         1.630670        -3.152658
