19
Iteration:    87charge 0 multiplicity 1
 C         1.416518        -0.505351         0.424842
 C         0.158008         0.039059         0.162537
 C        -0.982940         0.106726        -0.145432
 C        -2.408064         0.068020         0.025780
 O        -2.762294         0.467010         1.410742
 C        -3.382924         0.737626        -1.068610
 C        -4.786884         0.124149        -1.476568
 O        -4.527934         0.784427        -2.796685
 C        -3.077700         1.050189        -2.518757
 H         1.856734        -0.112763         1.250817
 H         1.339566        -1.708552         0.422490
 H         2.102056        -0.345179        -0.429680
 H        -2.662914        -0.989537        -0.006111
 H        -2.383766         1.327849         1.546122
 H        -3.735197         1.733008        -0.711112
 H        -4.933536        -0.917178        -1.650964
 H        -5.729365         0.409041        -0.929963
 H        -2.534926         0.304053        -3.081525
 H        -2.613665         2.010319        -2.608348
