19
Iteration:  1204
 C         0.929565        -0.757478        -0.950813
 C        -0.307367        -0.442933        -0.208857
 C        -1.458415        -0.191807         0.271579
 C        -2.820807         0.115351         0.554783
 O        -3.078631         1.033262         1.653159
 C        -3.688095         0.315356        -0.768468
 C        -3.253908        -0.244725        -2.143753
 O        -3.302564         1.063554        -2.765169
 C        -3.575970         1.721140        -1.460629
 H         1.513215         0.156000        -1.087036
 H         1.644909        -1.299265        -0.365219
 H         0.684438        -1.391167        -1.851575
 H        -3.305069        -0.846899         0.900688
 H        -2.963211         1.971948         1.332676
 H        -4.711210        -0.010908        -0.708257
 H        -2.199922        -0.653023        -2.266499
 H        -3.937961        -0.995624        -2.546482
 H        -2.662097         2.244285        -1.174019
 H        -4.548620         2.290119        -1.470629
