19
Iteration:  4411charge 0 multiplicity 1
 C         1.560939         0.005513         0.234420
 C         0.089006        -0.130333        -0.049212
 C        -1.150355        -0.289495        -0.105066
 C        -2.561059        -0.310310        -0.143376
 O        -3.105345        -0.468624         1.135190
 C        -3.260535         0.980849        -0.769146
 C        -4.638406         0.686322        -1.309413
 O        -4.335144         1.077124        -2.697996
 C        -2.946686         1.373156        -2.244231
 H         2.099114         0.339391        -0.632164
 H         1.715002         0.809622         0.934516
 H         1.944200        -1.033519         0.560006
 H        -2.856139        -1.099014        -0.759769
 H        -3.143722        -1.383429         1.405429
 H        -3.161787         1.875848        -0.061332
 H        -5.087043        -0.415778        -1.115889
 H        -5.343047         1.501614        -0.895611
 H        -2.320285         0.637287        -2.842260
 H        -2.625695         2.399555        -2.488370
