19
Iteration:   479charge 0 multiplicity 1
 C         1.477683        -0.041120         0.427909
 C         0.108922        -0.104957        -0.018264
 C        -1.087338        -0.249891        -0.000883
 C        -2.473360        -0.073701        -0.026648
 O        -2.974056         0.464718         1.218662
 C        -3.112944         0.797693        -1.093582
 C        -4.660470         0.741338        -1.289515
 O        -4.561575         0.636573        -2.663550
 C        -3.072269         0.529185        -2.563429
 H         2.183209        -0.773586         0.001567
 H         1.893578         1.019984         0.255045
 H         1.443499        -0.277213         1.500728
 H        -2.926859        -1.115196        -0.045329
 H        -2.551538         1.347132         1.438678
 H        -2.747990         1.877521        -0.929474
 H        -5.051148        -0.186645        -0.843711
 H        -5.260416         1.637174        -0.978937
 H        -2.749451        -0.499182        -2.843639
 H        -2.542591         1.325032        -3.196441
