19
Iteration:   939charge 0 multiplicity 1
 C         1.182626        -0.235341        -0.207403
 C        -0.207657        -0.136309        -0.346521
 C        -1.409921        -0.392033        -0.182319
 C        -2.778565        -0.201183         0.316934
 O        -2.714138         0.638425         1.558883
 C        -3.621615         0.671785        -0.676342
 C        -4.318079         0.020094        -1.839859
 O        -3.597830         0.747738        -2.857381
 C        -3.049609         1.563238        -1.856953
 H         1.316806         0.387718         0.732598
 H         1.696714        -1.103996         0.121768
 H         1.910553         0.146215        -0.934672
 H        -3.240956        -1.088304         0.689322
 H        -3.495510         0.311817         2.103387
 H        -4.329482         1.302560        -0.076292
 H        -4.102034        -1.083405        -2.006753
 H        -5.395210         0.269545        -2.028050
 H        -2.005960         1.803724        -2.064619
 H        -3.607765         2.560930        -1.784418
