19
Iteration:  2684charge 0 multiplicity 1
 C         1.513847        -0.137712         0.035819
 C         0.069584        -0.190055        -0.132911
 C        -1.163234        -0.356505        -0.060736
 C        -2.670906        -0.123806        -0.050457
 O        -3.228892        -0.081265         1.327301
 C        -3.292181         1.104756        -0.775524
 C        -4.619050         0.563454        -1.316994
 O        -4.102653         0.646564        -2.765364
 C        -2.899432         1.354234        -2.261930
 H         2.050160        -0.730314         0.854617
 H         1.985668        -0.244660        -0.934750
 H         1.680646         0.818279         0.426758
 H        -2.985669        -1.046012        -0.431088
 H        -2.870212         0.783097         1.618814
 H        -3.289785         2.026799        -0.132357
 H        -4.870860        -0.483037        -1.196901
 H        -5.560550         1.086355        -1.036385
 H        -2.005699         0.799618        -2.539089
 H        -2.804044         2.514715        -2.399467
