19
Iteration:  4483
 C         1.463544        -0.037165        -0.163265
 C        -0.003530        -0.070538        -0.096007
 C        -1.245913        -0.077596        -0.013632
 C        -2.739191        -0.233116        -0.081158
 O        -3.282697        -0.658903         1.133064
 C        -3.348865         1.093916        -0.593174
 C        -4.613208         0.701073        -1.407459
 O        -3.887680         0.778163        -2.655177
 C        -2.806954         1.491505        -2.001000
 H         1.778473        -0.459208        -1.143901
 H         1.833363         1.006639        -0.229339
 H         1.821834        -0.640075         0.677534
 H        -3.068711        -0.977919        -0.783207
 H        -2.518807        -0.869149         1.682744
 H        -3.431793         1.783180         0.197803
 H        -5.048925        -0.281517        -1.311344
 H        -5.429766         1.371553        -1.454331
 H        -1.737399         1.239335        -2.236260
 H        -2.653480         2.642437        -2.302469
