19
Iteration:  3778
 C         1.382948        -0.126811        -0.295057
 C        -0.043343        -0.113336         0.032877
 C        -1.222723         0.089683         0.197819
 C        -2.611607        -0.249858         0.129624
 O        -3.333913        -0.122565         1.402063
 C        -3.266299         0.818737        -0.805189
 C        -4.603622         0.636653        -1.457495
 O        -4.064133         1.108341        -2.806165
 C        -2.638879         0.870501        -2.275679
 H         1.482938         0.380491        -1.383693
 H         1.926815         0.350730         0.563423
 H         1.649481        -1.182319        -0.356041
 H        -2.678110        -1.290843        -0.359158
 H        -2.776508        -0.195190         2.167969
 H        -3.078210         1.764885        -0.333731
 H        -5.039001        -0.489783        -1.586235
 H        -5.460396         1.379117        -1.194472
 H        -2.463033        -0.194868        -2.539710
 H        -1.868044         1.769575        -2.355342
