19
Iteration:  1106charge 0 multiplicity 1
 C         0.780824        -0.886975        -1.076020
 C        -0.369023        -0.340347        -0.332833
 C        -1.287625         0.044166         0.320306
 C        -2.793911         0.099468         0.587615
 O        -3.227157         1.139633         1.372664
 C        -3.635736         0.235755        -0.746057
 C        -3.119167        -0.237503        -2.088664
 O        -3.275950         1.043106        -2.623201
 C        -3.552345         1.646116        -1.296386
 H         1.576010        -0.184550        -0.922680
 H         1.338347        -1.809643        -0.632973
 H         0.568163        -1.165352        -2.151945
 H        -3.049701        -0.853075         1.044044
 H        -3.801667         0.596789         1.990580
 H        -4.694606         0.066942        -0.649023
 H        -1.948418        -0.459648        -1.984638
 H        -3.604374        -1.154219        -2.552109
 H        -2.783906         2.248903        -0.755807
 H        -4.509782         2.269956        -1.306124
