19
Iteration:  2766
 C         1.560345        -0.126387         0.157334
 C         0.121492         0.107187         0.240658
 C        -1.078112         0.040802         0.101604
 C        -2.550986        -0.120998        -0.150766
 O        -3.186669        -0.527699         1.110259
 C        -3.111397         1.002599        -0.972614
 C        -4.676521         0.935533        -1.219052
 O        -4.429228         1.125250        -2.705140
 C        -3.055512         0.628382        -2.417403
 H         1.840212        -0.395287         1.135471
 H         1.803056        -1.121030        -0.374309
 H         2.269048         0.620626        -0.459479
 H        -2.663738        -1.061357        -0.682314
 H        -2.609745        -0.181725         1.774936
 H        -2.668430         1.903336        -0.671534
 H        -4.915463        -0.135764        -1.185926
 H        -5.302216         1.685613        -0.782986
 H        -2.838586        -0.418172        -2.566648
 H        -2.296333         1.104862        -3.072368
