19
Iteration:  1844charge 0 multiplicity 1
 C         1.465059        -0.086389         0.103742
 C         0.000913        -0.339897         0.169912
 C        -1.206874        -0.345372        -0.001107
 C        -2.644458        -0.041491         0.116305
 O        -2.984423         0.659105         1.332786
 C        -3.128601         0.938019        -1.030765
 C        -4.655349         0.663317        -1.323398
 O        -4.315741         0.511541        -2.776684
 C        -2.950496         0.751784        -2.526609
 H         2.023198        -0.889047        -0.308329
 H         1.641111         0.745627        -0.717863
 H         1.955719         0.267147         1.044093
 H        -3.239522        -0.982640         0.187996
 H        -2.964530        -0.038863         2.026401
 H        -2.829994         1.922844        -0.581113
 H        -4.976738        -0.198280        -0.819877
 H        -5.306758         1.604173        -1.312601
 H        -2.299118        -0.045940        -2.943751
 H        -2.475521         1.567110        -3.095990
