19
Iteration:  2139charge 0 multiplicity 1
 C         1.477365        -0.084683         0.417023
 C         0.027091        -0.238884         0.000817
 C        -1.144673        -0.351825        -0.118183
 C        -2.601241        -0.046564        -0.024087
 O        -2.773853         0.563609         1.259245
 C        -3.248648         0.908905        -0.992931
 C        -4.727259         0.625324        -1.353073
 O        -4.449664         0.677462        -2.773891
 C        -2.981108         0.739388        -2.486750
 H         1.600315         0.202482         1.450768
 H         1.987794        -1.097406         0.302244
 H         2.013977         0.674101        -0.208791
 H        -3.146388        -1.139434        -0.095927
 H        -2.486402        -0.009606         1.991102
 H        -3.078695         1.872290        -0.421825
 H        -5.185591        -0.278066        -1.042911
 H        -5.546417         1.200943        -0.972238
 H        -2.506824        -0.287282        -2.674755
 H        -2.403152         1.556929        -2.948034
