19
Iteration:  1563
 C         1.276435         0.390820         0.167366
 C        -0.000376        -0.172813        -0.001645
 C        -1.216597        -0.448691        -0.065181
 C        -2.604929        -0.240833        -0.040714
 O        -3.229501        -0.210018         1.290280
 C        -2.927181         0.915450        -1.025307
 C        -4.348779         1.452135        -1.282671
 O        -4.370478         0.713804        -2.590398
 C        -2.953505         0.358857        -2.424291
 H         1.882611         0.631281        -0.776810
 H         1.071649         1.233954         0.783241
 H         1.871479        -0.330422         0.759073
 H        -3.160090        -1.069743        -0.629178
 H        -2.519319         0.067330         1.930090
 H        -2.257216         1.771522        -0.873959
 H        -5.198441         1.042082        -0.696948
 H        -4.445297         2.551783        -1.400259
 H        -2.749561        -0.729767        -2.644318
 H        -2.318460         0.849944        -3.103103
