19
Iteration:  1786charge 0 multiplicity 1
 C         1.695083        -0.438273         0.492048
 C         0.278702        -0.057410         0.202822
 C        -0.946654         0.084763        -0.059673
 C        -2.436459         0.122238        -0.083200
 O        -3.161059         0.416844         1.177834
 C        -3.206253         0.972448        -1.170616
 C        -4.710904         0.592117        -1.251271
 O        -4.641501         0.692846        -2.698400
 C        -3.136249         0.568059        -2.620213
 H         1.713704        -1.443655        -0.112637
 H         2.573465         0.189126         0.243947
 H         1.701182        -0.753642         1.551650
 H        -2.684048        -0.942898        -0.304781
 H        -2.429279         0.447911         1.841745
 H        -3.100336         2.051744        -0.959290
 H        -4.952642        -0.364178        -0.766628
 H        -5.484338         1.248642        -0.859900
 H        -2.921993        -0.487689        -2.762926
 H        -2.742900         1.352162        -3.196907
