19
Iteration:  3220
 C         1.305861        -0.067512        -0.591224
 C        -0.078247        -0.213234        -0.175210
 C        -1.255374        -0.150903         0.237943
 C        -2.765939        -0.134216         0.245098
 O        -3.375539        -0.015308         1.568829
 C        -3.444487         0.931313        -0.733711
 C        -4.546315         0.624899        -1.634174
 O        -3.719146         0.685496        -2.803655
 C        -2.596536         1.161473        -2.046677
 H         1.680266        -0.774705        -1.307236
 H         1.713795         0.866456        -1.044433
 H         1.916788        -0.316365         0.392011
 H        -3.087114        -1.052114        -0.085440
 H        -2.710438         0.187893         2.272856
 H        -3.571348         1.858059        -0.082349
 H        -5.069334        -0.367814        -1.585422
 H        -5.324465         1.425053        -1.580614
 H        -1.748474         0.562539        -2.118414
 H        -2.420621         2.216201        -2.245533
