19
Iteration:  2889
 C         1.294102         0.431652         0.696064
 C         0.148383        -0.337019         0.121127
 C        -0.986878        -0.587386        -0.291344
 C        -2.480167        -0.456956        -0.273096
 O        -3.008833        -0.119164         0.999649
 C        -2.892792         0.707690        -1.210678
 C        -4.350483         1.196883        -0.978198
 O        -4.677780         1.219759        -2.436236
 C        -3.340085         0.604548        -2.696554
 H         0.926421         1.369219         1.180678
 H         1.875401        -0.146265         1.494744
 H         2.071797         0.489280        -0.110651
 H        -2.965332        -1.347879        -0.594119
 H        -2.439972        -0.530780         1.636827
 H        -2.124505         1.496972        -1.023885
 H        -5.170000         0.488082        -0.633078
 H        -4.479792         2.124055        -0.407916
 H        -3.418905        -0.406024        -3.134941
 H        -2.712696         1.295725        -3.367445
