19
Iteration:  4947charge 0 multiplicity 1
 C         1.557232        -0.215960         0.595197
 C         0.191657        -0.222273        -0.027887
 C        -1.007565        -0.190228        -0.192677
 C        -2.507802        -0.089101        -0.326862
 O        -3.104661        -0.462879         0.945332
 C        -3.117554         1.120655        -0.956785
 C        -4.645821         0.865010        -1.071441
 O        -4.512162         0.786852        -2.525644
 C        -3.165032         1.373817        -2.473085
 H         2.052404         0.759877         0.319570
 H         1.361470        -0.189446         1.703144
 H         2.254816        -1.005758         0.348730
 H        -2.881372        -0.899505        -1.041459
 H        -2.523605        -1.126147         1.317427
 H        -3.080156         2.044606        -0.333742
 H        -4.947380        -0.332089        -0.758034
 H        -5.321666         1.570667        -0.651021
 H        -2.270643         0.947632        -3.065597
 H        -3.152982         2.490894        -2.652039
