19
Iteration:  3195
 C         1.339643        -0.074909        -0.418814
 C        -0.066437        -0.282022        -0.147005
 C        -1.255687        -0.240112         0.090256
 C        -2.730058        -0.168947         0.243774
 O        -3.292953         0.027070         1.616705
 C        -3.328326         0.952288        -0.710865
 C        -4.624240         0.685913        -1.668893
 O        -3.755753         0.569323        -2.865637
 C        -2.757274         1.312272        -2.103482
 H         1.817008        -0.372689        -1.318955
 H         1.658153         0.985716        -0.624619
 H         1.970606        -0.449618         0.441943
 H        -3.230409        -1.024459        -0.023767
 H        -2.639065         0.012214         2.330638
 H        -3.266265         1.817705        -0.026506
 H        -5.128797        -0.294972        -1.573945
 H        -5.428579         1.467812        -1.618083
 H        -1.786589         0.889001        -2.269490
 H        -2.824201         2.356663        -2.274419
