19
Iteration:  2820charge 0 multiplicity 1
 C         1.617447         0.166351         0.475078
 C         0.205319        -0.017448         0.132116
 C        -0.991618        -0.305254         0.022729
 C        -2.476747        -0.377376        -0.164349
 O        -3.236391        -0.322719         1.026448
 C        -3.046283         0.739740        -1.095292
 C        -4.580126         1.098125        -1.116539
 O        -4.549821         1.283367        -2.569630
 C        -3.264757         0.567441        -2.656800
 H         1.828444         0.684294         1.368600
 H         2.196302        -0.807965         0.407335
 H         2.121212         0.704388        -0.489055
 H        -2.699671        -1.342773        -0.632596
 H        -2.670353        -0.680355         1.716664
 H        -2.454613         1.539677        -0.774190
 H        -5.300426         0.363758        -0.637546
 H        -4.830936         2.083893        -0.660374
 H        -3.348695        -0.480406        -2.949657
 H        -2.545758         1.269499        -3.353162
