19
Iteration:  3313charge 0 multiplicity 1
 C         1.258274        -0.054431        -0.547893
 C        -0.031120        -0.168522         0.006288
 C        -1.207318         0.046124         0.235199
 C        -2.647250        -0.176016         0.257596
 O        -3.446108        -0.097136         1.442032
 C        -3.260689         0.771863        -0.757320
 C        -4.559482         0.642158        -1.556187
 O        -3.882547         1.065057        -2.748885
 C        -2.573193         0.806058        -2.139926
 H         1.749750        -1.145672        -0.662335
 H         1.286833         0.184668        -1.613931
 H         1.796923         0.502940         0.139675
 H        -2.709188        -1.171901        -0.151092
 H        -3.453930         0.831312         1.713023
 H        -3.354689         1.745871        -0.399660
 H        -4.911012        -0.421301        -1.581340
 H        -5.406186         1.243590        -1.219312
 H        -2.209606        -0.227864        -2.462413
 H        -1.988821         1.728707        -2.336031
