19
Iteration:  3189
 C         1.316873        -0.051462        -0.392677
 C        -0.066618        -0.276085        -0.116157
 C        -1.280591        -0.263151         0.067944
 C        -2.721025        -0.166392         0.204643
 O        -3.241228         0.042794         1.590407
 C        -3.371412         0.955806        -0.758334
 C        -4.589414         0.672638        -1.622206
 O        -3.765224         0.574709        -2.816429
 C        -2.756492         1.306145        -2.139629
 H         1.725585        -0.546012        -1.336442
 H         1.609232         1.014372        -0.391425
 H         1.823162        -0.604573         0.475453
 H        -3.143595        -1.229045        -0.139426
 H        -2.587585        -0.012227         2.281064
 H        -3.387625         1.832295        -0.048409
 H        -5.147508        -0.265693        -1.475202
 H        -5.339351         1.479965        -1.605977
 H        -1.674846         1.021907        -2.304012
 H        -2.854616         2.444519        -2.283357
