19
Iteration:  3350charge 0 multiplicity 1
 C         1.366488         0.010763        -0.274020
 C        -0.068417        -0.077612        -0.079785
 C        -1.198265        -0.400770         0.204180
 C        -2.694120        -0.229951         0.168979
 O        -3.287216        -0.043222         1.478739
 C        -3.184003         0.854968        -0.818766
 C        -4.544890         0.728476        -1.480667
 O        -4.060448         1.095549        -2.767884
 C        -2.716818         0.813025        -2.321981
 H         1.756561        -0.800028         0.208381
 H         1.683011         0.157430        -1.333744
 H         1.805410         0.919758         0.296812
 H        -3.195512        -1.279226        -0.170392
 H        -3.104968         0.921392         1.691120
 H        -3.010553         1.860217        -0.316070
 H        -4.910506        -0.315662        -1.573811
 H        -5.434155         1.307528        -1.138101
 H        -2.367085        -0.273805        -2.647822
 H        -1.891031         1.438824        -2.681406
