19
Iteration:  2870
 C         1.284158         0.341344         0.550954
 C         0.051348        -0.337439         0.261344
 C        -1.046784        -0.419950        -0.215030
 C        -2.437920        -0.458757        -0.379578
 O        -3.006397        -0.092494         1.004458
 C        -2.921496         0.778325        -1.266181
 C        -4.346766         1.055973        -0.959877
 O        -4.540451         1.237638        -2.366115
 C        -3.321577         0.591388        -2.706322
 H         0.858745         1.294488         1.120103
 H         1.969666        -0.170153         1.211643
 H         1.819849         0.722586        -0.250791
 H        -2.839094        -1.421581        -0.729695
 H        -2.771693        -0.805540         1.600664
 H        -2.209576         1.666787        -1.030946
 H        -4.971400         0.349826        -0.414523
 H        -4.706303         1.974144        -0.434734
 H        -3.527342        -0.471676        -2.921787
 H        -2.716559         1.087992        -3.321873
