19
Iteration:  4384
 C         1.491338        -0.037018         0.350749
 C         0.085606        -0.127656         0.010385
 C        -1.121909        -0.086230        -0.201809
 C        -2.490584        -0.314674        -0.202740
 O        -3.130457        -0.475054         1.027940
 C        -3.192171         0.913007        -0.863986
 C        -4.712879         0.670420        -1.196264
 O        -4.395605         1.237842        -2.565367
 C        -2.902860         1.154556        -2.316287
 H         2.041921         0.525259        -0.469295
 H         1.667745         0.611977         1.246036
 H         1.845396        -1.029454         0.350011
 H        -2.736685        -1.325913        -0.869291
 H        -2.597000        -1.081675         1.553512
 H        -2.907523         1.778028        -0.334831
 H        -5.030643        -0.348560        -1.101688
 H        -5.404813         1.398933        -0.725421
 H        -2.576387         0.225678        -2.933974
 H        -2.481367         2.135763        -2.609038
