19
Iteration:  3278charge 0 multiplicity 1
 C         1.178721        -0.160618        -0.684935
 C        -0.088400         0.074007        -0.046528
 C        -1.218480        -0.076570         0.426699
 C        -2.647925        -0.143909         0.336421
 O        -3.448843        -0.193846         1.573031
 C        -3.277574         0.925366        -0.755898
 C        -4.478432         0.574527        -1.629128
 O        -3.850906         0.954742        -2.874783
 C        -2.560379         0.940787        -2.160962
 H         1.138836        -1.330384        -0.745620
 H         1.303187         0.499674        -1.539366
 H         2.037741         0.060632        -0.030055
 H        -2.927896        -1.076734         0.023841
 H        -3.158086         0.489742         2.201441
 H        -3.242563         1.931801        -0.393126
 H        -4.763288        -0.499587        -1.593112
 H        -5.352698         1.230616        -1.507383
 H        -1.779032         0.194482        -2.429544
 H        -2.060697         1.882357        -2.497392
