19
Iteration:  4290
 C         1.581020         0.058329         0.583342
 C         0.174409        -0.078146         0.204602
 C        -0.998251        -0.175830        -0.134726
 C        -2.369532        -0.338366        -0.399033
 O        -3.213361        -0.601892         0.842255
 C        -3.003692         0.803416        -1.124219
 C        -4.598964         0.963159        -0.995188
 O        -4.577498         1.400470        -2.377402
 C        -3.263386         0.794558        -2.580314
 H         1.867240         1.062426         0.596504
 H         1.748077        -0.284581         1.573074
 H         2.096769        -0.541305        -0.278767
 H        -2.602243        -1.272480        -0.987080
 H        -2.902786         0.159519         1.376382
 H        -2.539824         1.767071        -0.635115
 H        -5.140780         0.125622        -0.819520
 H        -4.958927         1.811494        -0.438964
 H        -3.375064        -0.217851        -2.956941
 H        -2.518730         1.443264        -3.054890
