19
Iteration:  3968charge 0 multiplicity 1
 C         1.525510        -0.212583        -0.255628
 C         0.029458        -0.235272        -0.050556
 C        -1.231433        -0.205342         0.035637
 C        -2.702401        -0.133024         0.115399
 O        -3.216194        -0.041317         1.466559
 C        -3.536268         1.008801        -0.681326
 C        -4.636793         0.486642        -1.614435
 O        -3.893196         0.820682        -2.860178
 C        -2.835975         1.373795        -2.060906
 H         1.790832        -1.279510        -0.523411
 H         1.732128         0.512630        -1.086023
 H         1.992914         0.107042         0.609460
 H        -3.079258        -1.112128        -0.441691
 H        -2.439167        -0.349663         2.007447
 H        -3.439279         1.917037         0.042410
 H        -4.749207        -0.565976        -1.536886
 H        -5.521666         1.112372        -1.689913
 H        -1.815179         0.816278        -2.200627
 H        -2.777839         2.533966        -2.262845
