19
Iteration:  1695charge 0 multiplicity 1
 C         1.587573        -0.353738         0.845507
 C         0.303539         0.044927         0.317548
 C        -0.860609         0.076034        -0.101800
 C        -2.338113         0.083513        -0.351932
 O        -2.912762        -0.010015         0.966987
 C        -3.134059         1.035848        -1.289071
 C        -4.701835         1.061244        -1.196314
 O        -4.815681         0.631573        -2.520407
 C        -3.403480         0.394796        -2.676847
 H         2.294497        -0.878110         0.077741
 H         2.257573         0.401173         1.228198
 H         1.244577        -0.869236         1.763866
 H        -2.556045        -0.801643        -0.818264
 H        -2.312453         0.631188         1.421775
 H        -2.810772         2.062994        -1.209021
 H        -5.162052         0.475154        -0.396953
 H        -5.255241         1.939219        -1.133802
 H        -3.183548        -0.748218        -2.627555
 H        -3.016248         0.890980        -3.553389
