19
Iteration:  1164
 C         0.604266        -0.848631        -1.129944
 C        -0.341626        -0.359986        -0.178520
 C        -1.325056         0.065176         0.385420
 C        -2.810463         0.011404         0.558810
 O        -3.240491         1.038667         1.506515
 C        -3.627367         0.279852        -0.761301
 C        -2.932273        -0.154347        -2.023889
 O        -3.291075         1.031609        -2.743581
 C        -3.594960         1.650309        -1.433391
 H         1.376315        -0.233618        -1.583492
 H         1.048078        -1.774022        -0.537010
 H         0.145118        -1.234981        -2.038664
 H        -3.064821        -0.908856         1.033931
 H        -2.447327         1.439753         1.842810
 H        -4.646771        -0.099783        -0.593833
 H        -1.805094        -0.221173        -1.842490
 H        -3.255688        -1.128645        -2.444606
 H        -2.730120         2.258601        -1.014737
 H        -4.476164         2.253817        -1.542958
