19
Iteration:  1713charge 0 multiplicity 1
 C         1.498274        -0.486663         0.820160
 C         0.287543         0.121949         0.301902
 C        -0.863606         0.361735        -0.181619
 C        -2.298366         0.072314        -0.262581
 O        -2.867486        -0.013038         1.055200
 C        -3.154145         0.996297        -1.260794
 C        -4.701083         1.009054        -1.180375
 O        -4.832265         0.624371        -2.646429
 C        -3.367225         0.374997        -2.657484
 H         1.808980        -1.090027         0.057906
 H         2.325703         0.288341         1.046125
 H         1.308062        -1.111740         1.708706
 H        -2.461975        -1.062641        -0.707680
 H        -2.276884         0.467264         1.699645
 H        -2.505182         1.904284        -1.298073
 H        -5.232119         0.206356        -0.604796
 H        -5.135106         2.065955        -0.873433
 H        -3.268665        -0.674923        -2.583461
 H        -2.902829         0.997214        -3.474929
