19
Iteration:  3005charge 0 multiplicity 1
 C         1.729402        -0.170659         0.475021
 C         0.294958        -0.077604         0.203313
 C        -0.917404        -0.019965         0.099177
 C        -2.429606        -0.132183        -0.183894
 O        -3.295154        -0.337297         0.980215
 C        -3.048506         0.900668        -1.115670
 C        -4.592061         1.086262        -1.120794
 O        -4.748939         0.854247        -2.603603
 C        -3.252526         0.811689        -2.699078
 H         2.083198         0.914369         0.244390
 H         2.055615        -0.182857         1.535034
 H         2.219317        -1.077748         0.032956
 H        -2.500923        -1.182700        -0.665573
 H        -2.948033        -0.067320         1.829251
 H        -2.519689         1.764101        -0.771797
 H        -5.115580         0.303446        -0.523667
 H        -4.974174         2.108561        -0.749764
 H        -2.780737        -0.125897        -3.163338
 H        -2.955377         1.647677        -3.226783
