19
Iteration:    21
 C         1.520976        -0.195930         0.272598
 C         0.092141        -0.158576        -0.049064
 C        -1.120431         0.091930        -0.088607
 C        -2.564205         0.034524         0.016321
 O        -3.083166         0.142742         1.421577
 C        -3.202580         1.068460        -1.022777
 C        -4.700027         0.682764        -1.298769
 O        -4.399024         0.549335        -2.770776
 C        -2.932174         0.678774        -2.506002
 H         1.650268        -0.145136         1.303095
 H         2.056787        -1.149704        -0.179476
 H         2.086716         0.643670        -0.138694
 H        -2.832705        -0.959563        -0.303739
 H        -2.609915         0.914653         1.844330
 H        -3.013981         2.119524        -0.699450
 H        -4.940169        -0.266146        -0.857269
 H        -5.565728         1.369412        -0.986172
 H        -2.475606        -0.275886        -2.641685
 H        -2.482630         1.409654        -3.168063
