19
Iteration:  2444
 C         1.472045         0.163915         0.166555
 C         0.057200        -0.001763        -0.200244
 C        -1.154447        -0.132788        -0.034383
 C        -2.649910        -0.256333         0.038524
 O        -3.075083        -0.169324         1.431001
 C        -3.250903         0.793903        -0.921134
 C        -4.707105         0.984350        -1.413080
 O        -4.169259         1.131616        -2.746684
 C        -2.942198         0.396265        -2.349501
 H         2.176771         0.083886        -0.706756
 H         1.490916         1.004205         0.774896
 H         1.732753        -0.669169         0.870524
 H        -2.890586        -1.226942        -0.344118
 H        -2.307882        -0.593632         1.915048
 H        -2.927841         1.801079        -0.606496
 H        -5.335546         0.019814        -1.413425
 H        -5.316431         1.882550        -1.098312
 H        -3.309741        -0.713705        -2.541343
 H        -2.009186         0.814563        -2.768728
