19
Iteration:   222charge 0 multiplicity 1
 C         1.334928        -0.241826        -0.156909
 C        -0.108790        -0.178119        -0.182162
 C        -1.290716         0.065690        -0.053158
 C        -2.723810         0.043674         0.319588
 O        -2.920451         0.608497         1.534044
 C        -3.509985         0.804583        -0.798757
 C        -4.654456         0.222122        -1.644662
 O        -3.931538         0.610133        -2.874821
 C        -2.716084         0.912318        -2.134538
 H         1.728846         0.758082        -0.572358
 H         1.695363        -0.358370         0.830743
 H         1.698127        -1.036861        -0.853879
 H        -3.017214        -1.013266         0.293869
 H        -2.554626         0.020634         2.212416
 H        -3.890102         1.713419        -0.333979
 H        -4.906016        -0.831919        -1.572953
 H        -5.497508         0.825944        -1.629501
 H        -1.957242         0.141498        -2.182221
 H        -2.342639         1.917046        -2.459245
