19
Iteration:  3406charge 0 multiplicity 1
 C         1.367603         0.100251         0.194173
 C        -0.000154        -0.249542         0.119780
 C        -1.150692        -0.358124        -0.199816
 C        -2.605603        -0.263755        -0.045583
 O        -3.013436         0.023857         1.299397
 C        -3.169134         0.864354        -0.905856
 C        -4.634764         0.996191        -1.289369
 O        -4.294591         0.989339        -2.759684
 C        -2.884848         0.686260        -2.396929
 H         1.752385        -0.391509         0.948951
 H         1.785626        -0.348742        -0.705439
 H         1.347693         1.211152         0.384907
 H        -3.092197        -1.257649        -0.267261
 H        -2.527568        -0.558561         1.935134
 H        -2.783965         1.852767        -0.527968
 H        -5.306689         0.162465        -1.288738
 H        -5.221720         1.897036        -1.027871
 H        -2.606886        -0.400144        -2.606267
 H        -2.197036         1.476383        -2.728821
