19
Iteration:   892
 C         1.343983        -0.168393        -0.356012
 C        -0.070969        -0.373338        -0.035396
 C        -1.302831        -0.043464         0.037109
 C        -2.763717        -0.014584         0.316932
 O        -2.941195         0.311304         1.660645
 C        -3.579551         0.855555        -0.711710
 C        -4.381526         0.044253        -1.803817
 O        -3.862508         0.783019        -2.962192
 C        -2.889037         1.420899        -1.986686
 H         2.094402         0.336112         0.363798
 H         1.800560        -1.060913        -0.604131
 H         1.383523         0.284693        -1.342662
 H        -3.122458        -0.991104         0.110554
 H        -3.889595         0.296960         1.856996
 H        -4.200505         1.672336        -0.300699
 H        -3.996102        -0.993212        -1.778317
 H        -5.507926         0.078122        -1.950430
 H        -1.905928         0.926743        -2.204278
 H        -2.766481         2.457562        -2.363531
