19
Iteration:  1066charge 0 multiplicity 1
 C         0.966047        -0.670079        -0.816598
 C        -0.304960        -0.368237        -0.225491
 C        -1.481369        -0.151950         0.008712
 C        -2.808756         0.008727         0.524931
 O        -2.900206         1.080092         1.509686
 C        -3.758225         0.303112        -0.725386
 C        -3.473554        -0.263044        -2.149861
 O        -3.192293         1.031893        -2.696257
 C        -3.573375         1.670803        -1.335809
 H         1.784906         0.031164        -0.616850
 H         1.203952        -1.645822        -0.280178
 H         1.043477        -0.708257        -1.892859
 H        -3.090254        -0.947397         1.044019
 H        -3.766479         1.416936         1.680348
 H        -4.796238         0.115859        -0.412776
 H        -2.699072        -0.998255        -2.257777
 H        -4.332810        -0.642691        -2.667238
 H        -2.783339         2.363668        -1.042671
 H        -4.543674         2.067558        -1.447825
