19
Iteration:  2950
 C         1.366268         0.119115         0.679475
 C         0.042859        -0.077858         0.201586
 C        -1.019634        -0.192926        -0.390480
 C        -2.484917        -0.287996        -0.349003
 O        -3.003827        -0.426497         1.117227
 C        -2.906954         0.911586        -1.104941
 C        -4.424708         1.307861        -1.025713
 O        -4.620337         1.029347        -2.451494
 C        -3.312277         0.483030        -2.694897
 H         1.781116         1.133533         0.593496
 H         1.566150        -0.341527         1.631206
 H         2.008695        -0.310267        -0.143853
 H        -2.827851        -1.271402        -0.854405
 H        -2.574234         0.264783         1.621772
 H        -2.209869         1.710260        -0.952750
 H        -4.967183         0.456778        -0.630786
 H        -4.693632         2.368991        -0.778552
 H        -3.187984        -0.584298        -2.998013
 H        -2.757779         0.924650        -3.460837
