19
Iteration:    48
 C         1.504134        -0.394317         0.341390
 C         0.140459        -0.058591         0.004074
 C        -1.049829         0.177837        -0.109148
 C        -2.470186         0.091372        -0.014798
 O        -2.887299         0.263887         1.374900
 C        -3.377868         0.967205        -0.986095
 C        -4.860742         0.398927        -1.378727
 O        -4.440433         0.705222        -2.829764
 C        -2.975440         0.771618        -2.429137
 H         1.572097        -0.198030         1.517574
 H         1.727687        -1.388857         0.292296
 H         2.257720         0.270746        -0.117056
 H        -2.675565        -0.992774        -0.243475
 H        -2.408591         1.082379         1.716581
 H        -3.413555         1.972345        -0.579786
 H        -4.845383        -0.746137        -1.260416
 H        -5.715218         0.933999        -1.064854
 H        -2.474347        -0.238341        -2.598275
 H        -2.420875         1.521646        -3.050055
