19
Iteration:  3761
 C         1.436710        -0.153088        -0.185947
 C         0.043878        -0.060103         0.037320
 C        -1.201153         0.065574         0.178965
 C        -2.694149        -0.147345         0.113718
 O        -3.290679        -0.201865         1.405433
 C        -3.218892         0.817358        -0.848806
 C        -4.686699         0.759006        -1.497349
 O        -4.079121         1.051636        -2.772382
 C        -2.762849         0.805102        -2.306414
 H         1.794244         0.343154        -1.008027
 H         2.011034         0.300975         0.603941
 H         1.847033        -1.139082        -0.590619
 H        -2.833916        -1.184815        -0.245850
 H        -2.615080        -0.541562         1.984931
 H        -3.196587         1.859307        -0.433726
 H        -5.085158        -0.183454        -1.450880
 H        -5.320843         1.566748        -1.201647
 H        -2.235315        -0.101965        -2.636645
 H        -2.168961         1.613646        -2.566221
