19
Iteration:  1087charge 0 multiplicity 1
 C         0.902105        -0.802733        -0.950768
 C        -0.274842        -0.353091        -0.248025
 C        -1.411024        -0.019498         0.148024
 C        -2.825047         0.019987         0.462350
 O        -3.090124         1.144217         1.431843
 C        -3.774829         0.243341        -0.686322
 C        -3.234573        -0.289252        -2.067981
 O        -3.241495         1.102027        -2.628323
 C        -3.568581         1.664769        -1.346515
 H         1.796602        -0.225567        -1.074739
 H         1.383834        -1.862136        -0.646727
 H         0.684279        -0.874664        -2.026897
 H        -3.083655        -0.909265         0.963472
 H        -3.971303         1.022496         1.865446
 H        -4.739743        -0.118796        -0.345789
 H        -2.258745        -0.822834        -1.947040
 H        -3.909729        -0.979802        -2.545430
 H        -2.631685         2.130846        -0.978796
 H        -4.401787         2.345521        -1.360644
