19
Iteration:  3422
 C         1.466224         0.072509         0.330083
 C        -0.010727        -0.196562         0.099876
 C        -1.167639        -0.421496        -0.185153
 C        -2.629770        -0.228434        -0.127157
 O        -2.940905         0.005129         1.250234
 C        -3.135145         0.972091        -0.935231
 C        -4.671132         1.000422        -1.309364
 O        -4.348075         0.962088        -2.702833
 C        -2.966633         0.657246        -2.424191
 H         1.911131        -0.297504         1.425854
 H         2.100312        -0.301932        -0.514649
 H         1.662202         1.142290         0.383658
 H        -3.147818        -1.133085        -0.691895
 H        -2.836260        -0.913743         1.632350
 H        -2.750021         1.927313        -0.497155
 H        -5.270789         0.236484        -0.708886
 H        -5.227693         1.914695        -1.036948
 H        -2.850047        -0.406838        -2.555730
 H        -2.300097         1.250363        -3.113892
