19
Iteration:  2985charge 0 multiplicity 1
 C         1.681714        -0.034916         0.572279
 C         0.239623        -0.056324         0.146534
 C        -0.989149        -0.134694         0.038280
 C        -2.388453        -0.262628        -0.304308
 O        -3.168224        -0.374948         0.949314
 C        -3.060626         1.018647        -1.084279
 C        -4.641183         1.213086        -1.121792
 O        -4.661677         0.911919        -2.530892
 C        -3.271630         0.620359        -2.636187
 H         2.142600         0.870644         0.500253
 H         1.830889        -0.379501         1.625753
 H         2.125427        -0.930503         0.029814
 H        -2.735977        -1.211209        -0.872002
 H        -2.814377         0.275625         1.559382
 H        -2.569922         1.921757        -0.890587
 H        -5.295044         0.565052        -0.518332
 H        -4.911967         2.194437        -0.750161
 H        -3.278957        -0.424480        -2.928361
 H        -2.779443         1.315235        -3.312128
