19
Iteration:  2915charge 0 multiplicity 1
 C         1.304750         0.302285         0.750939
 C         0.119683        -0.104452         0.009381
 C        -0.980143        -0.605513        -0.165927
 C        -2.463907        -0.456106        -0.369817
 O        -2.914481        -0.232707         1.029277
 C        -2.950826         0.721738        -1.115770
 C        -4.401861         1.345679        -1.052924
 O        -4.695247         1.150666        -2.498513
 C        -3.350045         0.571622        -2.657647
 H         1.125999         1.418329         1.124247
 H         1.553693        -0.284143         1.611519
 H         2.121174         0.126098         0.115093
 H        -2.933030        -1.376044        -0.736699
 H        -2.059375        -0.178901         1.436499
 H        -2.078797         1.458109        -0.956747
 H        -5.143372         0.795308        -0.466304
 H        -4.651536         2.377237        -0.636793
 H        -3.353647        -0.441892        -3.084553
 H        -2.875578         1.265357        -3.216191
