19
Iteration:  2126
 C         1.370790        -0.132550         0.333163
 C        -0.008751        -0.150513        -0.047550
 C        -1.165896        -0.267324        -0.183943
 C        -2.604768        -0.100026         0.037444
 O        -2.747010         0.555939         1.291562
 C        -3.303308         0.895229        -0.924735
 C        -4.769189         0.617549        -1.382635
 O        -4.300669         0.699104        -2.760177
 C        -2.947580         0.660797        -2.379989
 H         1.362586         0.119175         1.501507
 H         1.946398        -1.012036         0.176962
 H         1.833126         0.714917        -0.208903
 H        -3.291209        -1.133011         0.006508
 H        -2.279563        -0.062280         1.898088
 H        -3.113634         1.992911        -0.744035
 H        -4.995980        -0.373403        -1.173357
 H        -5.406284         1.477062        -1.274400
 H        -2.453150        -0.341427        -2.609313
 H        -2.401402         1.430824        -3.030568
