19
Iteration:   331
 C         1.187715         0.002687        -0.810320
 C        -0.099927        -0.060785         0.046717
 C        -1.245703         0.049306         0.524578
 C        -2.750917        -0.019220         0.391576
 O        -3.525596         0.265021         1.476837
 C        -3.010829         0.975559        -0.808544
 C        -4.435281         0.826030        -1.514416
 O        -3.905112         0.454647        -2.828877
 C        -2.593061         0.466684        -2.223445
 H         1.043080         0.199075        -1.885758
 H         1.888210         0.740260        -0.482745
 H         1.725767        -0.947856        -0.825200
 H        -2.878016        -1.042204        -0.085361
 H        -3.353878        -0.351829         2.246829
 H        -2.735349         1.997308        -0.523630
 H        -4.884416        -0.070301        -1.015173
 H        -5.203163         1.569808        -1.457155
 H        -2.160342        -0.501329        -2.500808
 H        -1.889099         1.172970        -2.618713
