19
Iteration:  3298
 C         1.307787        -0.150367        -0.633880
 C        -0.080767        -0.096380        -0.059936
 C        -1.198538         0.069262         0.483160
 C        -2.717321        -0.186621         0.274361
 O        -3.440512        -0.148490         1.502534
 C        -3.248416         0.833875        -0.780461
 C        -4.603256         0.581199        -1.596385
 O        -3.864319         1.027095        -2.838587
 C        -2.587756         0.897412        -2.140501
 H         1.742204        -1.131273        -0.764590
 H         1.280279         0.505715        -1.538418
 H         2.181185         0.476200        -0.176310
 H        -2.807292        -1.209042        -0.067531
 H        -3.312195         0.770737         1.894042
 H        -3.158537         1.797405        -0.160669
 H        -4.972654        -0.464180        -1.750715
 H        -5.351821         1.361900        -1.444291
 H        -2.110681         0.003776        -2.354186
 H        -1.787749         1.609888        -2.326363
