19
Iteration:  1466charge 0 multiplicity 1
 C         1.441791        -0.112295        -0.418606
 C         0.008574        -0.086649         0.032027
 C        -1.122710        -0.088771         0.364224
 C        -2.604607        -0.069647         0.213434
 O        -3.474030        -0.025399         1.397456
 C        -3.277376         0.907204        -0.814454
 C        -4.524607         0.446083        -1.530557
 O        -4.057151         1.029282        -2.818452
 C        -2.729076         0.875454        -2.255589
 H         1.631916         0.295177        -1.449695
 H         1.932012         0.511879         0.282137
 H         1.835119        -1.135292        -0.337464
 H        -2.780199        -1.111785        -0.212573
 H        -3.113799         0.526096         2.146173
 H        -3.283150         1.857839        -0.328545
 H        -4.803689        -0.586889        -1.610092
 H        -5.514970         0.840943        -1.180862
 H        -2.328439        -0.149432        -2.442393
 H        -2.095322         1.601574        -2.733149
