19
Iteration:    41
 C         1.499168        -0.340422         0.350100
 C         0.126645        -0.093946        -0.027464
 C        -1.055918         0.144133        -0.089359
 C        -2.522408         0.173007        -0.004187
 O        -2.909338         0.224922         1.348767
 C        -3.351129         0.946680        -0.946892
 C        -4.757167         0.439629        -1.397514
 O        -4.426421         0.689605        -2.807369
 C        -2.993157         0.719677        -2.440475
 H         1.495161        -0.084256         1.387660
 H         1.893138        -1.456093         0.058672
 H         2.258604         0.302374        -0.110253
 H        -2.760518        -0.878798        -0.281430
 H        -2.508966         0.970687         1.851992
 H        -3.309274         2.063213        -0.718349
 H        -5.054878        -0.573084        -1.100650
 H        -5.724210         1.004122        -1.051586
 H        -2.425377        -0.238041        -2.556540
 H        -2.555381         1.559676        -3.006078
