19
Iteration:  4803charge 0 multiplicity 1
 C         1.640311         0.014785         0.485463
 C         0.182396        -0.106721         0.214738
 C        -0.997007        -0.304955        -0.076206
 C        -2.461211        -0.293968        -0.331610
 O        -3.210040        -0.686245         0.823910
 C        -3.036628         1.060720        -0.981610
 C        -4.622302         1.078579        -1.068127
 O        -4.649735         1.079160        -2.498202
 C        -3.085994         1.057656        -2.509340
 H         1.853434         0.429569         1.450003
 H         1.972118        -1.005376         0.403594
 H         2.151096         0.554068        -0.394378
 H        -2.679361        -1.027096        -1.007596
 H        -3.187104         0.080234         1.456823
 H        -2.568187         1.896648        -0.365340
 H        -5.105491         0.116996        -0.460362
 H        -5.218736         1.859351        -0.557845
 H        -2.965419         0.071170        -3.016647
 H        -2.651997         1.809325        -3.056013
