19
Iteration:  4322charge 0 multiplicity 1
 C         1.605573         0.005906         0.511569
 C         0.191210        -0.080346         0.223291
 C        -1.034315        -0.125464        -0.050733
 C        -2.426840        -0.360900        -0.324875
 O        -3.044385        -0.700148         1.053432
 C        -3.095687         0.821646        -1.081635
 C        -4.676800         0.916962        -1.152323
 O        -4.599151         1.457807        -2.489038
 C        -3.250213         0.927303        -2.638299
 H         2.030735         0.920814         0.149767
 H         1.906160        -0.124613         1.542993
 H         2.174292        -0.915646        -0.027311
 H        -2.495831        -1.254399        -0.865506
 H        -3.149745         0.123156         1.545307
 H        -2.586751         1.836735        -0.820209
 H        -5.223770        -0.085873        -1.066678
 H        -5.213054         1.745605        -0.555322
 H        -3.107670         0.027715        -3.169248
 H        -2.512565         1.499900        -3.135213
