19
Iteration:  4039charge 0 multiplicity 1
 C         1.520663        -0.387748         0.025355
 C         0.131815         0.035507        -0.053451
 C        -1.105028        -0.054854         0.020144
 C        -2.527631        -0.047551        -0.059437
 O        -3.248583        -0.269208         1.209697
 C        -3.336949         1.107974        -0.734096
 C        -4.748100         0.646021        -1.373921
 O        -4.125012         0.743386        -2.731737
 C        -2.925156         1.289629        -2.209120
 H         1.475177        -1.257377         0.641446
 H         1.934146        -0.475750        -0.958941
 H         2.147446         0.347968         0.674092
 H        -2.864329        -0.995432        -0.813740
 H        -2.809291        -1.073031         1.569763
 H        -3.551999         2.002825        -0.068985
 H        -4.775523        -0.490718        -1.305198
 H        -5.540309         1.370263        -1.229344
 H        -2.031726         0.754258        -2.504331
 H        -2.832322         2.324335        -2.565143
