19
Iteration:  4034charge 0 multiplicity 1
 C         1.494925        -0.367071         0.021990
 C         0.085409         0.032143        -0.049230
 C        -1.100222        -0.048091         0.011218
 C        -2.563045        -0.030889        -0.065385
 O        -3.232869        -0.266936         1.244140
 C        -3.327044         1.078833        -0.750680
 C        -4.752294         0.609096        -1.378897
 O        -4.101875         0.751839        -2.737405
 C        -2.878179         1.326116        -2.225153
 H         1.540464        -1.446188         0.413393
 H         2.067440        -0.552778        -0.935576
 H         2.137794         0.285651         0.533071
 H        -2.694770        -0.907989        -0.597235
 H        -2.909008        -1.067175         1.667023
 H        -3.597797         1.920770        -0.062367
 H        -4.938020        -0.432493        -1.260377
 H        -5.622547         1.269238        -1.129313
 H        -1.926866         0.723212        -2.442868
 H        -2.925545         2.411886        -2.587876
