19
Iteration:  4172
 C         1.390913         0.111655         0.571468
 C         0.102260        -0.139186         0.027983
 C        -1.084036        -0.316444        -0.201284
 C        -2.469469        -0.369535        -0.370401
 O        -3.149240        -0.519396         0.904983
 C        -2.929953         1.009126        -1.041405
 C        -4.458209         1.225710        -0.943415
 O        -4.595789         0.965990        -2.437077
 C        -3.125560         0.936842        -2.546882
 H         1.267761         0.427040         1.621586
 H         1.996419        -0.785870         0.748298
 H         1.908221         0.805702        -0.068710
 H        -2.750504        -1.113934        -1.042942
 H        -2.625178        -1.182292         1.366522
 H        -2.366468         1.833741        -0.588578
 H        -4.868975         0.385422        -0.211905
 H        -4.803625         2.267993        -0.735979
 H        -2.845473        -0.010040        -3.001089
 H        -2.826066         1.876162        -3.065096
