19
Iteration:  3578
 C         1.587175        -0.332030         0.823472
 C         0.311461         0.059397         0.086523
 C        -0.899793        -0.046382        -0.152997
 C        -2.425116        -0.077106        -0.347812
 O        -3.109089        -0.348074         0.883715
 C        -3.059521         1.177031        -1.130699
 C        -4.599296         1.276803        -1.121583
 O        -4.731041         0.588288        -2.380954
 C        -3.324017         0.711568        -2.670017
 H         1.560037         0.365616         1.787883
 H         1.431952        -1.365938         1.200751
 H         2.385235        -0.331741         0.161618
 H        -2.624017        -0.952999        -1.046409
 H        -2.758312         0.268794         1.547587
 H        -2.394721         1.981035        -1.012689
 H        -4.960835         0.693365        -0.249058
 H        -4.909277         2.346439        -1.175669
 H        -2.881472        -0.176767        -3.019168
 H        -3.218412         1.244825        -3.616674
