19
Iteration:   362
 C         1.219097         0.031065        -0.565319
 C        -0.203989         0.115178        -0.253058
 C        -1.298870        -0.014079         0.300603
 C        -2.745219        -0.000777         0.283388
 O        -3.457766         0.226511         1.423457
 C        -3.020142         0.917489        -0.815782
 C        -4.477351         0.941126        -1.406024
 O        -3.867588         0.490678        -2.672836
 C        -2.561063         0.268412        -2.155361
 H         1.471617        -0.074961        -1.556732
 H         1.795764         1.017504        -0.291434
 H         1.659797        -0.920686        -0.147564
 H        -2.964581        -0.993916        -0.165357
 H        -3.478807        -0.551941         1.978497
 H        -2.652325         1.903975        -0.713489
 H        -5.123163         0.195352        -0.928623
 H        -4.892746         1.973756        -1.465887
 H        -2.428493        -0.836824        -2.275487
 H        -1.843901         0.876711        -2.617081
