19
Iteration:  2696charge 0 multiplicity 1
 C         1.495968        -0.103530         0.060525
 C         0.058630        -0.226698        -0.110768
 C        -1.151408        -0.222648         0.015237
 C        -2.563002        -0.136141        -0.003781
 O        -3.241067        -0.100667         1.255820
 C        -3.182660         0.955503        -0.837888
 C        -4.629886         0.556625        -1.326502
 O        -4.202114         0.745885        -2.745771
 C        -2.914489         1.279504        -2.255613
 H         1.789691        -0.897881         0.825118
 H         2.024922        -0.432295        -0.816502
 H         1.863954         0.893936         0.216511
 H        -2.995338        -0.970754        -0.466739
 H        -3.186537         0.750282         1.684402
 H        -3.157541         1.893399        -0.246390
 H        -4.923169        -0.416886        -0.963607
 H        -5.354033         1.369613        -1.169760
 H        -2.078483         0.963185        -2.818774
 H        -2.961420         2.435290        -2.429076
