19
Iteration:    96
 C         1.497630        -0.498952         0.449610
 C         0.192682        -0.033931         0.127372
 C        -1.007295         0.126484        -0.135560
 C        -2.533334         0.003934        -0.009452
 O        -2.778735         0.527919         1.427369
 C        -3.400618         0.758714        -1.036975
 C        -4.685635         0.048144        -1.519977
 O        -4.524876         0.811886        -2.758347
 C        -3.140314         1.099272        -2.536338
 H         2.057909        -0.153459         1.281551
 H         1.245299        -1.675377         0.630405
 H         2.029803        -0.384770        -0.500885
 H        -2.824532        -1.076207        -0.014261
 H        -2.348413         1.376891         1.420707
 H        -3.560945         1.751534        -0.489961
 H        -4.571049        -1.049364        -1.626458
 H        -5.604351         0.542540        -0.990428
 H        -2.494719         0.277485        -3.044955
 H        -2.857910         2.090346        -2.960595
