19
Iteration:  2162charge 0 multiplicity 1
 C         1.547464        -0.149784         0.462950
 C         0.189274        -0.338176         0.200114
 C        -1.036660        -0.289305        -0.094670
 C        -2.510319        -0.039395        -0.010577
 O        -2.928433         0.538726         1.257125
 C        -3.160516         0.849358        -1.108253
 C        -4.684005         0.671323        -1.317865
 O        -4.570570         0.662597        -2.721390
 C        -3.169168         0.842136        -2.683893
 H         1.656315         0.433003         1.316607
 H         2.297825        -1.020387         0.532155
 H         1.876380         0.576181        -0.342169
 H        -3.029904        -1.150062        -0.113583
 H        -2.692176        -0.009934         2.049528
 H        -2.887768         1.899877        -0.788526
 H        -5.096315        -0.255846        -0.990320
 H        -5.421939         1.224438        -0.797539
 H        -2.647041        -0.067512        -3.146321
 H        -2.896969         1.761707        -3.199339
