19
Iteration:  1901charge 0 multiplicity 1
 C         1.268410        -0.042183        -0.278962
 C        -0.221602        -0.104628        -0.242382
 C        -1.363077        -0.158731         0.004412
 C        -2.782790        -0.035010         0.253845
 O        -3.125278         0.408788         1.647010
 C        -3.182174         0.931450        -0.808283
 C        -4.508769         0.970215        -1.594203
 O        -3.991142         0.370582        -2.773414
 C        -2.607942         0.470134        -2.237740
 H         1.858585        -0.946909        -0.224730
 H         1.486351         0.579645        -1.174680
 H         1.610992         0.626318         0.544936
 H        -3.204745        -1.058279         0.317044
 H        -2.426164        -0.045252         2.155434
 H        -2.847650         1.877663        -0.413367
 H        -5.393790         0.527842        -1.099356
 H        -4.901632         2.013974        -1.802590
 H        -2.220288        -0.558748        -2.267536
 H        -2.036125         1.292638        -2.693711
