19
Iteration:  3180charge 0 multiplicity 1
 C         1.318668        -0.068702        -0.316070
 C        -0.116387        -0.238603        -0.097096
 C        -1.312375        -0.269816         0.051228
 C        -2.749173        -0.181764         0.138934
 O        -3.170006         0.066805         1.509040
 C        -3.361418         0.981226        -0.743138
 C        -4.577395         0.613276        -1.555444
 O        -3.797588         0.578190        -2.776113
 C        -2.719336         1.326036        -2.126646
 H         1.465873        -0.614722        -1.309967
 H         1.539332         0.951657        -0.189071
 H         1.905207        -0.563415         0.367082
 H        -3.108291        -1.287724        -0.223601
 H        -2.337752        -0.093863         1.945051
 H        -3.669780         1.815054        -0.156262
 H        -5.150434        -0.271757        -1.290392
 H        -5.151799         1.513993        -1.699073
 H        -1.633260         1.015380        -2.513650
 H        -2.872313         2.423312        -2.395326
