19
Iteration:   459charge 0 multiplicity 1
 C         1.495081         0.095738         0.253657
 C         0.060083        -0.257136         0.129898
 C        -1.144256        -0.367641        -0.091559
 C        -2.671366        -0.113914         0.004349
 O        -3.056107         0.518435         1.297836
 C        -3.085468         0.929211        -1.018804
 C        -4.596529         0.728488        -1.204290
 O        -4.425838         0.606288        -2.727682
 C        -3.002799         0.529875        -2.605553
 H         2.061117        -0.448311        -0.490063
 H         1.697292         1.261654        -0.060966
 H         1.984764        -0.057702         1.253739
 H        -3.191511        -1.078979        -0.118030
 H        -2.274062         0.949451         1.675749
 H        -2.703349         1.896386        -0.849450
 H        -5.034056        -0.182144        -0.776279
 H        -5.267530         1.621700        -1.038008
 H        -2.619382        -0.540649        -2.684585
 H        -2.319925         1.204258        -3.175016
