19
Iteration:  2782charge 0 multiplicity 1
 C         1.526594        -0.097341         0.263163
 C         0.096716         0.048892         0.118977
 C        -1.098221         0.126331         0.066894
 C        -2.481642        -0.215663        -0.095457
 O        -3.186640        -0.514777         1.081468
 C        -3.110746         0.869058        -0.981925
 C        -4.585976         0.992648        -1.194091
 O        -4.419425         1.176470        -2.612631
 C        -3.101927         0.594586        -2.551994
 H         2.025126         0.086781         1.280887
 H         1.800927        -1.033904        -0.163763
 H         1.878148         0.709126        -0.246196
 H        -2.414857        -1.219524        -0.713322
 H        -2.651708        -0.403235         1.872029
 H        -2.757987         1.966824        -0.830308
 H        -5.222365         0.175723        -0.851479
 H        -5.125720         1.971374        -0.868131
 H        -3.161093        -0.553874        -2.804400
 H        -2.331596         1.054460        -3.211165
