19
Iteration:  1846
 C         1.453432        -0.062773         0.080089
 C         0.013312        -0.332491         0.157791
 C        -1.237687        -0.370062        -0.010362
 C        -2.649856        -0.059058         0.123454
 O        -2.986777         0.657243         1.339031
 C        -3.130620         0.951561        -1.016936
 C        -4.655422         0.676119        -1.334282
 O        -4.302858         0.507130        -2.774144
 C        -2.933531         0.748577        -2.515698
 H         1.988703        -0.949268        -0.217076
 H         1.640100         0.746255        -0.690138
 H         1.975582         0.231854         1.011753
 H        -3.181506        -0.903113         0.182696
 H        -2.972052        -0.007821         2.095098
 H        -2.822663         1.934078        -0.649604
 H        -4.985389        -0.204693        -0.797051
 H        -5.299910         1.571591        -1.352394
 H        -2.262536        -0.116393        -2.859612
 H        -2.474557         1.607367        -3.097864
