19
Iteration:  3758
 C         1.459352        -0.160159        -0.162531
 C         0.057726        -0.040501         0.036380
 C        -1.203099         0.040644         0.175122
 C        -2.693571        -0.157187         0.121559
 O        -3.279328        -0.206369         1.398148
 C        -3.218963         0.847651        -0.841541
 C        -4.694483         0.757529        -1.482123
 O        -4.086461         1.045894        -2.785056
 C        -2.778158         0.805080        -2.337613
 H         1.813677         0.423011        -1.084306
 H         1.994875         0.258352         0.709701
 H         1.844699        -1.160243        -0.586588
 H        -2.856289        -1.110329        -0.258195
 H        -2.627252        -0.617315         2.009366
 H        -3.127068         1.856428        -0.413892
 H        -5.186099        -0.224405        -1.399152
 H        -5.345250         1.677076        -1.343961
 H        -2.354134        -0.200876        -2.529352
 H        -2.166863         1.715798        -2.543244
