19
Iteration:  1145
 C         0.640791        -0.960235        -1.150637
 C        -0.411727        -0.302689        -0.323992
 C        -1.374538         0.063149         0.445881
 C        -2.806508         0.156318         0.636717
 O        -3.319674         1.108395         1.563052
 C        -3.497232         0.222391        -0.773008
 C        -2.878192        -0.248924        -2.185597
 O        -3.298069         1.057802        -2.690177
 C        -3.555547         1.604680        -1.374412
 H         1.306485        -0.009267        -1.337352
 H         1.130365        -1.850601        -0.738123
 H         0.166997        -1.175206        -2.141221
 H        -3.001504        -0.877895         1.091891
 H        -2.826045         1.175996         2.371477
 H        -4.463959        -0.298170        -0.525248
 H        -1.857614        -0.310454        -2.208749
 H        -3.360090        -1.063629        -2.745384
 H        -2.819397         2.377874        -1.189654
 H        -4.485979         2.159715        -1.348946
