19
Iteration:    88
 C         1.417002        -0.505610         0.428842
 C         0.163257         0.030028         0.158342
 C        -0.976756         0.107611        -0.143334
 C        -2.421496         0.058427         0.021826
 O        -2.763401         0.474764         1.415712
 C        -3.386242         0.741508        -1.070613
 C        -4.784435         0.113653        -1.477056
 O        -4.525760         0.786055        -2.791013
 C        -3.081568         1.058945        -2.522934
 H         1.889442        -0.108697         1.265914
 H         1.322553        -1.665371         0.423665
 H         2.081277        -0.351488        -0.449631
 H        -2.676975        -0.987429        -0.018783
 H        -2.383636         1.329312         1.533438
 H        -3.707751         1.716909        -0.708652
 H        -4.899518        -0.931558        -1.653770
 H        -5.681677         0.413380        -0.954272
 H        -2.560267         0.321863        -3.059128
 H        -2.620907         2.014177        -2.642091
