19
Iteration:  3435charge 0 multiplicity 1
 C         1.501825         0.058147         0.445951
 C         0.074409        -0.167485         0.044713
 C        -1.125792        -0.363687        -0.164542
 C        -2.656849        -0.197915        -0.147889
 O        -2.961354        -0.062656         1.226354
 C        -3.063830         1.002125        -1.005952
 C        -4.629359         1.061127        -1.207789
 O        -4.457359         0.917583        -2.674677
 C        -3.052689         0.644214        -2.514162
 H         1.688050        -0.466693         1.559528
 H         2.192871        -0.515437        -0.248077
 H         1.749469         1.121474         0.362472
 H        -3.260988        -1.102182        -0.412638
 H        -3.019364        -0.889823         1.676332
 H        -2.575238         1.885853        -0.745511
 H        -5.136909         0.095194        -1.045405
 H        -5.175105         2.008682        -1.022669
 H        -2.657874        -0.344346        -2.736722
 H        -2.391486         1.253915        -3.149945
