19
Iteration:  1659
 C         1.535285        -0.007384         0.783722
 C         0.191990        -0.253225         0.280382
 C        -0.906281        -0.069530        -0.162760
 C        -2.433492        -0.137692        -0.346546
 O        -3.093442         0.088506         0.974638
 C        -2.958870         0.914254        -1.308116
 C        -4.460136         1.106162        -1.098930
 O        -4.772548         0.600093        -2.352918
 C        -3.385383         0.541744        -2.802134
 H         2.286974        -0.363867         0.181361
 H         1.546922         1.074719         1.150357
 H         1.628439        -0.713413         1.618810
 H        -2.676756        -1.112053        -0.585083
 H        -2.611579         0.776450         1.470471
 H        -2.243019         1.748538        -1.259161
 H        -4.895613         0.505169        -0.302144
 H        -4.661183         2.209525        -1.025224
 H        -3.157058        -0.415366        -3.271910
 H        -3.083763         1.288341        -3.604204
