19
Iteration:  3864charge 0 multiplicity 1
 C         1.189261        -0.025989        -0.450713
 C        -0.116353        -0.274749        -0.084206
 C        -1.325048        -0.218891         0.117001
 C        -2.706390        -0.208438         0.224611
 O        -3.205820         0.116936         1.532928
 C        -3.361356         0.788567        -0.736293
 C        -4.524273         0.444212        -1.671044
 O        -3.799033         1.036449        -2.810675
 C        -2.622760         1.127395        -2.032854
 H         1.358310        -0.132558        -1.575395
 H         1.611615         1.010379        -0.428760
 H         2.096317        -0.439188         0.204928
 H        -3.139894        -1.227234        -0.068733
 H        -3.011283        -0.575537         2.187206
 H        -3.663890         1.622523        -0.148085
 H        -4.849500        -0.509780        -1.958408
 H        -5.489462         0.903235        -1.416438
 H        -1.862797         0.309853        -2.260059
 H        -2.072915         2.166529        -2.007628
