19
Iteration:  2504
 C         1.336073         0.011362        -0.281720
 C         0.024315        -0.064490         0.209085
 C        -1.191390        -0.062003         0.228426
 C        -2.609117        -0.261471         0.049904
 O        -3.311607        -0.024480         1.293568
 C        -3.117302         0.858413        -0.864390
 C        -4.567801         0.666581        -1.378071
 O        -4.175763         0.903537        -2.748612
 C        -2.774097         0.904853        -2.343738
 H         1.377842        -0.475346        -1.241721
 H         1.784657         1.072187        -0.528248
 H         2.026923        -0.510218         0.366183
 H        -2.699360        -1.298647        -0.424240
 H        -3.019743        -0.641441         1.996845
 H        -3.013517         1.775517        -0.267561
 H        -4.872857        -0.425026        -1.173082
 H        -5.359074         1.269937        -0.930457
 H        -2.267654         0.018575        -2.780293
 H        -2.085125         1.678852        -2.689185
