19
Iteration:  2322
 C         1.640100         0.021083         0.595459
 C         0.152364        -0.118195         0.260329
 C        -1.037560        -0.229130        -0.033631
 C        -2.458966        -0.205939        -0.267361
 O        -3.136314         0.016580         0.961840
 C        -2.982895         0.894628        -1.175611
 C        -4.492473         1.152314        -1.113937
 O        -4.692390         0.795348        -2.548922
 C        -3.313149         0.551098        -2.645597
 H         1.921290         1.014324         0.131692
 H         1.778837        -0.087578         1.596859
 H         2.313261        -0.698281         0.188814
 H        -2.784557        -1.204528        -0.819846
 H        -2.779146        -0.462520         1.755855
 H        -2.267467         1.738392        -1.000110
 H        -5.035412         0.427009        -0.444064
 H        -4.867578         2.117092        -0.736888
 H        -3.115092        -0.509493        -2.779219
 H        -2.720700         1.045225        -3.470809
