19
Iteration:  2228
 C         1.602178        -0.434791         0.597742
 C         0.222077         0.144295         0.202360
 C        -0.953412         0.147699        -0.042552
 C        -2.412049         0.069836        -0.226531
 O        -3.218551        -0.012555         1.018433
 C        -3.054556         1.030148        -1.195368
 C        -4.559306         0.954322        -1.121448
 O        -4.697449         0.658675        -2.584013
 C        -3.241621         0.540583        -2.618259
 H         2.189378         0.307445         1.013734
 H         1.601418        -1.506987         1.065027
 H         2.306171        -0.608590        -0.283563
 H        -2.477034        -1.026589        -0.492210
 H        -2.509008        -0.062830         1.653308
 H        -2.789827         2.089815        -1.169516
 H        -4.888315         0.056823        -0.605320
 H        -5.141210         1.740122        -0.656546
 H        -2.930653        -0.590665        -2.751497
 H        -2.674407         1.010641        -3.409937
