19
Iteration:  1069charge 0 multiplicity 1
 C         0.959414        -0.716124        -0.840221
 C        -0.272495        -0.360511        -0.216749
 C        -1.495850        -0.132848         0.003713
 C        -2.800476         0.015948         0.556919
 O        -2.927710         1.084099         1.490908
 C        -3.750873         0.292008        -0.721736
 C        -3.446737        -0.257386        -2.130389
 O        -3.200123         1.032181        -2.684547
 C        -3.569578         1.666223        -1.340762
 H         1.759129         0.113666        -0.629240
 H         1.140402        -1.587065        -0.369680
 H         0.939062        -0.708372        -1.939683
 H        -3.055974        -0.961178         1.103335
 H        -3.857775         1.342715         1.690644
 H        -4.837580         0.116353        -0.461354
 H        -2.570764        -0.861365        -2.283960
 H        -4.288226        -0.667139        -2.746794
 H        -2.768670         2.327319        -0.995737
 H        -4.564584         2.132057        -1.509942
