19
Iteration:  3075charge 0 multiplicity 1
 C         1.586844        -0.323736         0.272496
 C         0.130411        -0.068382         0.096505
 C        -1.077498         0.002189        -0.136710
 C        -2.547221        -0.061247        -0.093408
 O        -3.188745        -0.069383         1.187332
 C        -3.234026         1.099710        -0.872406
 C        -4.728746         0.756271        -1.241452
 O        -4.371356         0.598144        -2.697608
 C        -2.953517         1.065920        -2.443305
 H         1.979052         0.249180        -0.521945
 H         2.157077         0.195871         1.088139
 H         1.943685        -1.422757         0.240600
 H        -2.702305        -1.047293        -0.737149
 H        -2.658812        -0.671061         1.713191
 H        -2.975985         2.113500        -0.494869
 H        -5.030709        -0.264892        -0.983385
 H        -5.584332         1.380161        -0.991183
 H        -2.242903         0.393129        -2.868870
 H        -2.758634         2.124219        -2.789421
