19
Iteration:  1132charge 0 multiplicity 1
 C         0.622966        -0.871115        -1.148527
 C        -0.417305        -0.366526        -0.360984
 C        -1.340066         0.071060         0.363636
 C        -2.764747         0.076647         0.712891
 O        -3.369243         1.186850         1.534952
 C        -3.397089         0.188789        -0.719888
 C        -2.946541        -0.192426        -2.145013
 O        -3.292417         1.080980        -2.769376
 C        -3.556977         1.582294        -1.352792
 H         1.605895        -0.317512        -1.222262
 H         1.033886        -1.803400        -0.505546
 H         0.335121        -1.332596        -2.108612
 H        -3.103566        -0.875358         1.133862
 H        -3.134438         0.818787         2.444684
 H        -4.443939        -0.144380        -0.743387
 H        -1.897555        -0.459256        -2.335146
 H        -3.577701        -1.024898        -2.477333
 H        -2.785202         2.235112        -0.914163
 H        -4.537475         1.966365        -1.226429
