19
Iteration:  2371charge 0 multiplicity 1
 C         1.417754         0.329928         0.430043
 C         0.107038        -0.265958         0.126781
 C        -1.078596        -0.548363         0.050966
 C        -2.510198        -0.402844        -0.162767
 O        -3.098663         0.188927         1.091831
 C        -2.950771         0.757019        -1.155625
 C        -4.475445         0.991864        -1.146729
 O        -4.584596         1.013130        -2.553647
 C        -3.140077         0.630554        -2.694302
 H         1.703050         0.938903        -0.369005
 H         1.350899         0.659388         1.547468
 H         2.186746        -0.513077         0.535839
 H        -2.961175        -1.364998        -0.572556
 H        -2.571522        -0.121853         1.827940
 H        -2.300756         1.544434        -0.822908
 H        -4.990237         0.166957        -0.651139
 H        -4.822205         1.827039        -0.533022
 H        -3.044337        -0.474383        -3.032708
 H        -2.774670         1.360339        -3.454984
