19
Iteration:   237
 C         1.331251        -0.177962        -0.297301
 C        -0.161213        -0.231170        -0.287970
 C        -1.302946         0.057075         0.068047
 C        -2.769610         0.007103         0.205399
 O        -3.047635         0.624852         1.677126
 C        -3.431861         0.850857        -0.802367
 C        -4.619293         0.310385        -1.644324
 O        -3.891204         0.545196        -2.859249
 C        -2.647732         0.866596        -2.092011
 H         1.881299         0.782848        -0.736645
 H         1.607646        -0.097922         0.805637
 H         1.828055        -1.020600        -0.817803
 H        -3.170513        -1.015483         0.274240
 H        -2.730358        -0.045457         2.263757
 H        -3.422585         1.962742        -0.503411
 H        -4.712573        -0.802738        -1.502747
 H        -5.774369         0.492103        -1.547029
 H        -1.865226         0.167652        -2.410137
 H        -2.110204         1.835487        -2.228963
