19
Iteration:  2305charge 0 multiplicity 1
 C         1.618043        -0.068540         0.593074
 C         0.230435        -0.008349         0.320370
 C        -0.933217        -0.168781        -0.016126
 C        -2.447965        -0.140562        -0.273398
 O        -3.074161        -0.131654         1.051911
 C        -3.051730         1.011280        -1.196148
 C        -4.623907         1.222257        -1.215412
 O        -4.742764         0.796841        -2.577907
 C        -3.278226         0.428611        -2.650520
 H         2.205383         0.800750         0.403200
 H         1.810135        -0.393138         1.735567
 H         2.055873        -0.900420        -0.078904
 H        -2.744329        -1.053790        -0.654300
 H        -2.439040        -0.682742         1.583949
 H        -2.581393         1.978096        -1.179727
 H        -5.259931         0.750727        -0.446696
 H        -4.948228         2.281209        -1.174202
 H        -3.111137        -0.692723        -2.713061
 H        -2.802483         1.117881        -3.334286
