19
Iteration:  2240charge 0 multiplicity 1
 C         1.536038        -0.402295         0.573726
 C         0.223036         0.128078         0.149950
 C        -0.977402         0.294122         0.002953
 C        -2.390607        -0.001816        -0.220974
 O        -3.121286        -0.105040         1.034714
 C        -3.044235         1.027611        -1.165866
 C        -4.602877         1.014070        -1.165866
 O        -4.693997         0.693136        -2.571590
 C        -3.215860         0.450046        -2.612550
 H         2.099638         0.194103         1.196420
 H         1.285458        -1.232843         1.334752
 H         2.034914        -0.781236        -0.346994
 H        -2.499805        -0.937948        -0.867255
 H        -2.530593        -0.144597         1.804444
 H        -2.469561         1.948171        -1.123496
 H        -4.964374         0.260351        -0.499377
 H        -5.061445         1.993738        -1.058057
 H        -3.072185        -0.697136        -2.694783
 H        -2.837963         1.039802        -3.425846
