19
Iteration:    95
 C         1.483250        -0.500109         0.446538
 C         0.197434        -0.030336         0.130254
 C        -1.000970         0.125172        -0.136507
 C        -2.525643         0.007691        -0.007608
 O        -2.777047         0.523052         1.429524
 C        -3.401529         0.755911        -1.045470
 C        -4.698791         0.050374        -1.514547
 O        -4.522888         0.809136        -2.759336
 C        -3.135792         1.099387        -2.534156
 H         2.071917        -0.138199         1.318329
 H         1.234874        -1.646289         0.600155
 H         2.010832        -0.376477        -0.504505
 H        -2.816548        -1.082355        -0.028412
 H        -2.345146         1.391788         1.434162
 H        -3.560194         1.757134        -0.509346
 H        -4.593441        -1.069176        -1.638206
 H        -5.612905         0.562786        -0.982171
 H        -2.499410         0.259219        -3.054730
 H        -2.815787         2.109370        -2.946583
