19
Iteration:  2069charge 0 multiplicity 1
 C         1.427025        -0.155946        -0.173310
 C        -0.042156        -0.054955        -0.115467
 C        -1.225134        -0.068671         0.185472
 C        -2.719904         0.008817         0.258988
 O        -3.010816         0.379212         1.591679
 C        -3.325691         0.906131        -0.924419
 C        -4.696092         0.698541        -1.600315
 O        -4.111336         0.679556        -2.905658
 C        -2.787832         0.471464        -2.254063
 H         1.864833        -0.530367         0.853070
 H         1.731588        -0.876169        -0.886426
 H         1.706222         0.824992        -0.475645
 H        -3.129880        -1.151840         0.092883
 H        -2.119635         0.634777         1.871104
 H        -3.148410         1.966098        -0.696190
 H        -5.243575        -0.164954        -1.423803
 H        -5.502966         1.414144        -1.409148
 H        -2.529374        -0.618954        -2.218017
 H        -1.947855         1.067603        -2.727799
