19
Iteration:  3513
 C         1.618023        -0.224013         0.646871
 C         0.135639        -0.091837         0.479638
 C        -0.947329        -0.149611        -0.053984
 C        -2.366585        -0.039969        -0.376340
 O        -3.106231        -0.206269         0.868430
 C        -2.979389         1.115979        -1.271739
 C        -4.505335         1.127821        -1.054850
 O        -4.789934         0.727081        -2.436081
 C        -3.369106         0.672025        -2.742055
 H         1.992638        -0.059076         1.740570
 H         2.045987        -1.192326         0.283613
 H         2.256046         0.427648        -0.000992
 H        -2.678964        -1.103663        -0.851798
 H        -2.570408         0.181693         1.565505
 H        -2.505793         2.037992        -1.105271
 H        -4.768037         0.402593        -0.286806
 H        -5.175521         1.996728        -0.861614
 H        -2.956961        -0.294335        -3.043983
 H        -3.060075         1.497847        -3.419402
