19
Iteration:  4969
 C         1.532423        -0.195361         0.473549
 C         0.184556        -0.195173         0.143888
 C        -0.981594        -0.124182        -0.256260
 C        -2.466710        -0.205738        -0.384274
 O        -3.058718        -0.369159         0.965419
 C        -3.208683         1.073980        -0.816905
 C        -4.744412         0.804203        -1.182663
 O        -4.493860         0.914706        -2.602846
 C        -3.094719         1.280893        -2.329451
 H         2.192279         0.567695        -0.030369
 H         1.736973        -0.076806         1.581540
 H         1.982589        -1.145732         0.279502
 H        -2.795128        -1.026428        -1.167943
 H        -2.891115        -1.204121         1.469870
 H        -3.008633         1.910847        -0.090255
 H        -5.170986        -0.330481        -0.803768
 H        -5.427196         1.513881        -0.818914
 H        -2.211414         0.623354        -2.778738
 H        -2.932276         2.333947        -2.755929
