19
Iteration:  4627charge 0 multiplicity 1
 C         1.370861         0.142129        -0.226882
 C        -0.016110        -0.112603        -0.068239
 C        -1.223310        -0.196782         0.016098
 C        -2.652198        -0.440161        -0.034939
 O        -3.325779        -0.489724         1.261642
 C        -3.280945         0.803980        -0.651980
 C        -4.575500         0.695352        -1.490190
 O        -4.011859         1.186673        -2.670307
 C        -2.702309         1.299259        -2.058450
 H         1.996081        -0.680576         0.034800
 H         1.628395         0.405728        -1.224646
 H         1.606501         1.024143         0.488938
 H        -2.884435        -1.383550        -0.623646
 H        -2.909743        -1.179619         1.847324
 H        -3.166850         1.615412         0.037043
 H        -4.985080        -0.485027        -1.560319
 H        -5.413439         1.339090        -1.205320
 H        -1.902916         0.734370        -2.610847
 H        -2.325997         2.321515        -1.993599
