19
Iteration:  1785charge 0 multiplicity 1
 C         1.687081        -0.441008         0.497854
 C         0.274388        -0.044145         0.198214
 C        -0.929186         0.091676        -0.062702
 C        -2.435369         0.131297        -0.083684
 O        -3.160701         0.407979         1.174389
 C        -3.194290         0.971858        -1.167529
 C        -4.717868         0.598541        -1.241842
 O        -4.640808         0.693814        -2.698858
 C        -3.139575         0.562923        -2.626283
 H         1.681336        -1.470104        -0.109567
 H         2.536214         0.172031         0.269784
 H         1.691036        -0.780326         1.551462
 H        -2.699596        -0.996908        -0.321510
 H        -2.409437         0.454266         1.838868
 H        -3.107525         2.043195        -0.961372
 H        -4.950933        -0.398208        -0.766491
 H        -5.480414         1.230218        -0.866270
 H        -2.956297        -0.476122        -2.736075
 H        -2.742554         1.320717        -3.211818
