19
Iteration:    38
 C         1.504527        -0.328472         0.338917
 C         0.135391        -0.113161        -0.045042
 C        -1.073295         0.137265        -0.086903
 C        -2.544186         0.192965         0.006952
 O        -2.928344         0.205028         1.344229
 C        -3.337958         0.950072        -0.938119
 C        -4.708435         0.476775        -1.403594
 O        -4.417039         0.671935        -2.787225
 C        -3.018449         0.704363        -2.445529
 H         1.543620        -0.084031         1.508708
 H         1.860406        -1.291000         0.055138
 H         2.229799         0.355177        -0.154670
 H        -2.838168        -0.875101        -0.286282
 H        -2.524683         0.947492         1.865247
 H        -3.305787         2.043363        -0.799704
 H        -5.080297        -0.557520        -1.074081
 H        -5.591392         1.051646        -1.109026
 H        -2.420774        -0.278520        -2.600124
 H        -2.549440         1.584572        -2.970625
