19
Iteration:  2867
 C         1.280538         0.352707         0.541788
 C         0.045190        -0.331376         0.272194
 C        -1.058885        -0.409936        -0.200675
 C        -2.443725        -0.451313        -0.373442
 O        -3.001943        -0.096835         0.985742
 C        -2.899680         0.785174        -1.260853
 C        -4.363180         1.059342        -0.940644
 O        -4.542536         1.236891        -2.362430
 C        -3.312686         0.585560        -2.705973
 H         0.924670         1.211851         1.186133
 H         2.034614        -0.225274         1.184664
 H         1.870616         0.641332        -0.381510
 H        -2.824749        -1.379201        -0.705555
 H        -2.804701        -0.862031         1.602302
 H        -2.260774         1.646485        -1.027395
 H        -5.094356         0.275118        -0.576890
 H        -4.659394         1.958039        -0.410731
 H        -3.493495        -0.470707        -2.884382
 H        -2.664189         1.044034        -3.481054
