19
Iteration:   733charge 0 multiplicity 1
 C         1.333670         0.291330        -0.096197
 C        -0.099237        -0.027348        -0.016795
 C        -1.246134        -0.307440         0.057250
 C        -2.770012        -0.307258         0.025625
 O        -3.257545         0.052906         1.365015
 C        -3.040944         0.863620        -0.900596
 C        -4.442783         1.122425        -1.315240
 O        -4.189349         0.554890        -2.638360
 C        -2.741912         0.527395        -2.420338
 H         1.731369        -0.037449         0.789430
 H         1.767247        -0.271639        -0.998358
 H         1.590285         1.340259        -0.131825
 H        -3.140093        -1.284447        -0.222481
 H        -2.457573         0.358895         1.794833
 H        -2.606233         1.764856        -0.468959
 H        -5.313440         0.688968        -0.797848
 H        -4.571047         2.206612        -1.427046
 H        -2.383259        -0.494272        -2.660002
 H        -2.100332         1.193885        -3.028226
