19
Iteration:  4291charge 0 multiplicity 1
 C         1.580032         0.053817         0.575391
 C         0.180177        -0.080328         0.210871
 C        -1.004693        -0.166156        -0.140799
 C        -2.368504        -0.335993        -0.392514
 O        -3.210374        -0.604155         0.844550
 C        -3.009494         0.797730        -1.113952
 C        -4.596220         0.959890        -1.000755
 O        -4.579845         1.405611        -2.379216
 C        -3.269722         0.799682        -2.579280
 H         1.866370         1.062427         0.598771
 H         1.759980        -0.270054         1.572853
 H         2.083629        -0.540621        -0.240569
 H        -2.593890        -1.320974        -0.994181
 H        -2.921068         0.177048         1.387890
 H        -2.529061         1.756649        -0.650160
 H        -5.138659         0.131836        -0.825733
 H        -4.925390         1.784315        -0.473960
 H        -3.330308        -0.234908        -2.980866
 H        -2.488530         1.443634        -3.080596
