19
Iteration:  3675
 C         1.500911         0.025167         0.409502
 C         0.139439        -0.286681         0.036460
 C        -1.069200        -0.396194        -0.070125
 C        -2.560819        -0.239480        -0.190750
 O        -3.170001        -0.027729         1.122614
 C        -3.072824         1.015029        -1.015303
 C        -4.586344         1.049618        -1.153771
 O        -4.456589         0.704132        -2.587914
 C        -3.039227         0.962691        -2.562999
 H         1.562833         1.123472         0.328631
 H         1.646641        -0.305022         1.440151
 H         2.140023        -0.585036        -0.202601
 H        -2.997365        -1.100250        -0.664461
 H        -2.658633        -0.506985         1.796785
 H        -2.681169         1.865290        -0.426478
 H        -5.251318         0.179870        -0.754316
 H        -5.111042         1.975218        -0.940923
 H        -2.336421         0.169574        -3.036827
 H        -2.748908         1.948676        -3.065095
