19
Iteration:  3710charge 0 multiplicity 1
 C         1.470672        -0.072696         0.180360
 C         0.022061        -0.123676         0.043539
 C        -1.174925        -0.135524        -0.089923
 C        -2.611207        -0.237875        -0.098757
 O        -3.190740        -0.086719         1.248870
 C        -3.138736         0.952558        -0.894986
 C        -4.675015         0.933988        -1.239469
 O        -4.262008         0.845142        -2.668533
 C        -2.831588         0.837301        -2.449758
 H         2.077890         0.826725        -0.318741
 H         1.815124        -0.073944         1.250754
 H         1.979244        -0.779302        -0.390491
 H        -2.910431        -1.163333        -0.515436
 H        -3.057912        -0.871715         1.802714
 H        -2.961411         1.922628        -0.462261
 H        -5.144066        -0.086247        -0.936950
 H        -5.167552         1.846042        -0.827414
 H        -2.469783        -0.204383        -2.785054
 H        -2.368864         1.761258        -3.042760
