19
Iteration:  3876
 C         1.302488         0.015402        -0.468445
 C        -0.070036        -0.258833        -0.093349
 C        -1.320562        -0.260874         0.053093
 C        -2.797582        -0.228942         0.234736
 O        -3.196474         0.123863         1.586502
 C        -3.431360         0.829244        -0.667229
 C        -4.532128         0.469472        -1.751177
 O        -3.798761         1.012946        -2.846454
 C        -2.629747         1.124095        -1.963954
 H         1.515605        -0.541214        -1.458878
 H         1.324338         1.108293        -0.393110
 H         1.925705        -0.616776         0.189603
 H        -3.171667        -1.303585        -0.019124
 H        -2.934793        -0.638630         2.111975
 H        -3.647157         1.677001        -0.067705
 H        -4.612510        -0.565911        -1.710765
 H        -5.441426         1.083450        -1.710463
 H        -1.873762         0.323313        -2.286248
 H        -2.117391         2.180710        -2.137100
