19
Iteration:  3263
 C         1.121067        -0.205778        -0.653199
 C        -0.130286         0.149337        -0.005082
 C        -1.317973        -0.079877         0.262229
 C        -2.771476        -0.131652         0.281541
 O        -3.411226        -0.168301         1.566698
 C        -3.144902         0.935539        -0.758541
 C        -4.482049         0.525282        -1.554501
 O        -3.778288         0.857297        -2.825361
 C        -2.501222         1.059522        -2.148931
 H         1.123146        -1.096210        -1.155884
 H         1.169768         0.455351        -1.556887
 H         2.060509        -0.092598         0.046993
 H        -2.958417        -1.096363        -0.222981
 H        -2.870116         0.418097         2.181733
 H        -3.352098         1.925526        -0.192163
 H        -4.750843        -0.554446        -1.489280
 H        -5.472624         1.019251        -1.355877
 H        -1.978497         0.193817        -2.347084
 H        -1.923921         1.936045        -2.362245
