19
Iteration:  2713charge 0 multiplicity 1
 C         1.536279        -0.168659         0.045524
 C         0.101841        -0.186884        -0.008957
 C        -1.113404        -0.002338         0.099828
 C        -2.572529        -0.272094        -0.024962
 O        -3.257881        -0.189801         1.254871
 C        -3.203815         0.897957        -0.858050
 C        -4.622997         0.698439        -1.316949
 O        -4.280412         0.806845        -2.697749
 C        -2.944061         1.250397        -2.431435
 H         1.959675        -0.581542         0.937949
 H         2.043002        -0.633825        -0.853607
 H         1.794366         0.908001         0.246516
 H        -2.663926        -1.388752        -0.344313
 H        -3.098587         0.724119         1.459810
 H        -3.048057         1.773644        -0.198314
 H        -5.071443        -0.327274        -1.229229
 H        -5.356848         1.403513        -0.894019
 H        -2.168695         0.563058        -2.976265
 H        -2.669907         2.233346        -2.649056
