19
Iteration:  3705charge 0 multiplicity 1
 C         1.465043        -0.032406         0.210308
 C         0.041634        -0.163883         0.038202
 C        -1.139403        -0.123013        -0.111865
 C        -2.618545        -0.241416        -0.110786
 O        -3.193499        -0.064095         1.230159
 C        -3.129492         0.932283        -0.941302
 C        -4.615454         0.945748        -1.216797
 O        -4.310094         0.829320        -2.642118
 C        -2.836635         0.855576        -2.469454
 H         1.737000         0.905812        -0.178007
 H         1.712383        -0.211899         1.250855
 H         1.956258        -0.973917        -0.300408
 H        -2.966796        -1.285531        -0.557928
 H        -3.012331        -0.865386         1.776050
 H        -2.843552         1.857392        -0.334127
 H        -5.145016         0.033631        -0.923918
 H        -5.234327         1.778317        -0.863532
 H        -2.398178        -0.101986        -2.684480
 H        -2.467852         1.709167        -2.904470
