19
Iteration:  3846
 C         1.274130        -0.021165        -0.488486
 C        -0.097218        -0.236859        -0.074638
 C        -1.300493        -0.191120         0.253478
 C        -2.780875        -0.280520         0.219432
 O        -3.293223         0.127550         1.505448
 C        -3.278883         0.763591        -0.796883
 C        -4.510452         0.425250        -1.625480
 O        -3.894634         1.095592        -2.780313
 C        -2.529953         1.112650        -2.106262
 H         1.273838        -0.098807        -1.584709
 H         1.624370         0.988526        -0.170359
 H         1.849653        -0.711676         0.052942
 H        -3.193187        -1.292886        -0.085244
 H        -2.812808        -0.544480         2.031651
 H        -3.451033         1.639833        -0.122838
 H        -4.656274        -0.733809        -1.586203
 H        -5.512244         0.929776        -1.445875
 H        -1.920090         0.399754        -2.682473
 H        -2.218547         2.162976        -2.098690
