19
Iteration:  2885charge 0 multiplicity 1
 C         1.287864         0.419213         0.689136
 C         0.138157        -0.349481         0.140312
 C        -0.985946        -0.555179        -0.290804
 C        -2.482926        -0.428519        -0.306763
 O        -3.020196        -0.105432         1.007590
 C        -2.884505         0.685827        -1.178235
 C        -4.351867         1.176768        -0.972398
 O        -4.662861         1.234497        -2.440104
 C        -3.344052         0.591552        -2.676919
 H         0.934257         1.312333         1.120539
 H         1.889654        -0.070255         1.455646
 H         1.987489         0.540061        -0.199516
 H        -3.001201        -1.400112        -0.668366
 H        -2.447021        -0.619806         1.642868
 H        -2.163753         1.457729        -1.111118
 H        -4.945659         0.306752        -0.571429
 H        -4.426846         2.144359        -0.462845
 H        -3.392532        -0.366205        -3.246590
 H        -2.745452         1.304788        -3.424641
