19
Iteration:  3832
 C         1.316965        -0.047036        -0.464481
 C        -0.077056        -0.132083        -0.060038
 C        -1.280199        -0.280276         0.248431
 C        -2.708038        -0.260869         0.245343
 O        -3.395198         0.081480         1.509461
 C        -3.237321         0.783860        -0.727481
 C        -4.447150         0.470816        -1.629871
 O        -3.937379         1.098999        -2.789294
 C        -2.672968         1.099448        -2.196987
 H         1.464218        -0.131227        -1.589272
 H         1.734302         0.917987        -0.124437
 H         1.870941        -0.861342        -0.277588
 H        -3.011084        -1.361675        -0.044528
 H        -2.997582        -0.204190         2.333839
 H        -3.311020         1.727550        -0.259660
 H        -4.491804        -0.584976        -1.960646
 H        -5.418907         0.881663        -1.270881
 H        -1.961690         0.249530        -2.498296
 H        -2.002331         2.043907        -2.323676
