19
Iteration:  4773charge 0 multiplicity 1
 C         1.482482         0.116505         0.358040
 C         0.090275        -0.239511         0.229102
 C        -1.095966        -0.174698        -0.052744
 C        -2.538516        -0.382264        -0.327817
 O        -3.182460        -0.585258         0.948001
 C        -2.978856         0.902659        -0.969567
 C        -4.583411         0.936616        -1.089788
 O        -4.517069         1.238077        -2.482017
 C        -3.034442         1.047714        -2.558779
 H         1.802134         0.317393         1.414362
 H         2.101148        -0.764994         0.008902
 H         1.765018         0.916273        -0.319685
 H        -2.646339        -1.409011        -0.926103
 H        -2.519774        -0.354950         1.609716
 H        -2.573175         1.750482        -0.483495
 H        -4.918615        -0.066623        -0.825988
 H        -5.146973         1.729368        -0.428129
 H        -2.990234         0.111113        -3.088266
 H        -2.503826         1.994075        -3.009550
