19
Iteration:  1877
 C         1.324292        -0.013902        -0.092268
 C        -0.131177        -0.176011        -0.161363
 C        -1.373925        -0.345934         0.061472
 C        -2.758357        -0.069132         0.154219
 O        -2.982839         0.548546         1.406482
 C        -3.172189         0.940605        -0.891693
 C        -4.619474         0.833591        -1.419298
 O        -4.059297         0.430211        -2.757344
 C        -2.725850         0.602355        -2.296301
 H         1.799262        -0.938391        -0.144118
 H         1.638366         0.716679        -0.956408
 H         1.732254         0.428608         0.849261
 H        -3.378192        -1.097154         0.170389
 H        -2.598366         0.008650         2.081520
 H        -2.817343         1.949494        -0.597153
 H        -5.333439         0.258542        -0.888417
 H        -5.136700         1.833079        -1.663439
 H        -2.238080        -0.350943        -2.246836
 H        -2.221475         1.429689        -2.775766
