19
Iteration:  3646charge 0 multiplicity 1
 C         1.487862        -0.026503         0.552945
 C         0.100628        -0.290072         0.204775
 C        -1.044075        -0.393961        -0.153651
 C        -2.526120        -0.182232        -0.291273
 O        -3.074821        -0.095341         1.016400
 C        -2.986292         1.071444        -1.065162
 C        -4.524724         1.146462        -1.119530
 O        -4.576005         0.584932        -2.516646
 C        -3.213947         0.936799        -2.594964
 H         1.730223         1.115962         0.759540
 H         1.752050        -0.457814         1.559530
 H         2.094165        -0.276982        -0.340734
 H        -3.074113        -1.022680        -0.865702
 H        -2.336160        -0.161978         1.614654
 H        -2.526339         1.927732        -0.630307
 H        -5.072192         0.395280        -0.665999
 H        -4.892478         2.214566        -1.150130
 H        -2.492574         0.456547        -3.198236
 H        -3.011549         1.969095        -3.007853
