19
Iteration:   801
 C         1.317170        -0.069782        -0.488951
 C        -0.029878        -0.003984        -0.051054
 C        -1.217945         0.194859         0.357357
 C        -2.652637        -0.103241         0.219323
 O        -3.409852         0.099404         1.471200
 C        -3.211446         0.760270        -0.814951
 C        -4.501903         0.506068        -1.460921
 O        -4.024529         0.965384        -2.780053
 C        -2.610762         0.658416        -2.299298
 H         1.771535        -0.115332         0.430330
 H         1.484103        -1.061438        -1.004811
 H         1.689937         0.738676        -1.121950
 H        -2.743869        -1.118382        -0.039506
 H        -3.844986        -0.727345         1.687813
 H        -3.143085         1.687192        -0.310934
 H        -4.618681        -0.591787        -1.409163
 H        -5.422133         1.071086        -1.185198
 H        -2.208172        -0.369910        -2.503436
 H        -1.837352         1.321853        -2.652804
