19
Iteration:   645charge 0 multiplicity 1
 C         1.447433         0.093884         0.646215
 C         0.086234        -0.167844         0.279559
 C        -1.001688        -0.206022        -0.222239
 C        -2.491598        -0.118538        -0.250262
 O        -3.008076         0.126234         1.057810
 C        -2.946994         1.047343        -1.274189
 C        -4.498197         1.183544        -1.164317
 O        -4.719040         0.345185        -2.368695
 C        -3.194104         0.506092        -2.702398
 H         1.969159        -0.526294         1.262896
 H         2.085185         0.255441        -0.297831
 H         1.358303         1.101914         1.069537
 H        -3.043448        -1.002180        -0.621343
 H        -2.291417        -0.147133         1.648786
 H        -2.241139         1.876806        -1.194797
 H        -5.096332         0.907599        -0.263250
 H        -4.838197         2.231696        -1.425306
 H        -2.717670        -0.438697        -2.994037
 H        -3.086433         1.277189        -3.484961
