19
Iteration:  1788charge 0 multiplicity 1
 C         1.706528        -0.437676         0.479386
 C         0.280493        -0.079158         0.209547
 C        -0.971912         0.072816        -0.051156
 C        -2.439947         0.106504        -0.083550
 O        -3.158841         0.433015         1.183568
 C        -3.227174         0.971987        -1.170640
 C        -4.698158         0.583295        -1.267685
 O        -4.642036         0.689695        -2.697923
 C        -3.135253         0.577649        -2.607880
 H         1.791382        -1.363117        -0.095700
 H         2.614996         0.219804         0.197486
 H         1.729270        -0.700986         1.548732
 H        -2.664303        -0.859339        -0.280815
 H        -2.477208         0.437237         1.847941
 H        -3.081184         2.059094        -0.962100
 H        -4.952615        -0.329119        -0.780030
 H        -5.486852         1.295407        -0.847008
 H        -2.841406        -0.504402        -2.822560
 H        -2.715584         1.414512        -3.207900
