19
Iteration:  4160
 C         1.397446         0.056541         0.543911
 C         0.145264        -0.167777         0.012783
 C        -1.096469        -0.205746        -0.186829
 C        -2.515845        -0.384439        -0.377070
 O        -3.177190        -0.469154         0.866944
 C        -2.972472         0.980978        -0.955832
 C        -4.488718         1.197977        -0.980911
 O        -4.535731         0.893347        -2.367170
 C        -3.097000         0.992632        -2.563728
 H         1.276489         0.448513         1.530952
 H         1.981847        -0.810397         0.376631
 H         1.967459         0.898313         0.097600
 H        -2.741851        -1.207541        -0.941934
 H        -2.702886        -1.015290         1.555235
 H        -2.189809         1.754683        -0.655271
 H        -5.239413         0.394222        -0.482305
 H        -4.853239         2.182014        -0.616575
 H        -2.680458         0.191560        -3.203247
 H        -2.601296         1.880465        -3.100287
