19
Iteration:  1829charge 0 multiplicity 1
 C         1.495893        -0.161786         0.170794
 C         0.061304        -0.378554         0.228694
 C        -1.114520        -0.164004         0.091795
 C        -2.568401        -0.005167         0.022311
 O        -2.969673         0.647798         1.275180
 C        -3.169227         0.853393        -1.035355
 C        -4.630903         0.662831        -1.330606
 O        -4.462099         0.542265        -2.753177
 C        -2.977990         0.761047        -2.621754
 H         2.138800        -1.075733        -0.150304
 H         1.591118         0.758509        -0.379839
 H         1.912859         0.033900         1.174754
 H        -3.086420        -1.128549        -0.157080
 H        -2.930427         0.009540         2.044259
 H        -2.999740         1.924471        -0.830010
 H        -5.099689        -0.322074        -1.006006
 H        -5.280641         1.445333        -0.946032
 H        -2.406205        -0.079689        -2.964795
 H        -2.796177         1.747049        -2.976824
