19
Iteration:   149charge 0 multiplicity 1
 C         1.589542        -0.421956         0.267139
 C         0.102096        -0.399584         0.058028
 C        -1.074975        -0.009898        -0.078317
 C        -2.599400         0.106150         0.173709
 O        -2.945404         0.630680         1.398961
 C        -3.400343         0.831484        -0.974185
 C        -4.537476         0.042021        -1.547992
 O        -4.432747         0.701156        -2.824926
 C        -3.113475         1.251219        -2.468167
 H         1.725873         0.661740         0.600557
 H         1.911917        -0.956803         1.159093
 H         2.202886        -0.530679        -0.629931
 H        -2.971297        -0.961374         0.131575
 H        -2.192099         1.031491         1.807842
 H        -3.643231         1.840335        -0.520057
 H        -4.309839        -1.079527        -1.624909
 H        -5.590587         0.005072        -1.031430
 H        -2.410796         0.700249        -3.144483
 H        -2.979163         2.357611        -2.626102
