19
Iteration:  2453charge 0 multiplicity 1
 C         1.488172         0.094545         0.130461
 C         0.072004         0.060414        -0.229892
 C        -1.117710        -0.137305         0.003248
 C        -2.675907        -0.264202         0.108640
 O        -3.130553        -0.176815         1.412556
 C        -3.236541         0.796907        -0.823357
 C        -4.735888         0.912784        -1.477449
 O        -4.140011         1.127555        -2.791616
 C        -2.987687         0.490300        -2.327082
 H         2.279186         0.172796        -0.730180
 H         1.644285         1.114936         0.455904
 H         1.727856        -0.707138         0.806413
 H        -2.861771        -1.183788        -0.363496
 H        -2.487411        -0.576065         2.066970
 H        -2.797114         1.804941        -0.591566
 H        -5.255453         0.045802        -1.164334
 H        -5.235151         1.838183        -1.207712
 H        -3.049689        -0.736219        -2.514394
 H        -2.027918         0.742336        -2.836109
