19
Iteration:  1292
 C         1.156060        -0.406428        -0.259259
 C        -0.266040        -0.328487        -0.171601
 C        -1.515038        -0.283592        -0.179868
 C        -2.853508        -0.079212         0.255450
 O        -2.623518         0.819832         1.377971
 C        -3.803561         0.553143        -0.716239
 C        -4.114829        -0.192834        -2.066358
 O        -3.413488         0.956092        -2.747276
 C        -3.284700         1.638861        -1.511970
 H         1.656893         0.515715        -0.601366
 H         1.515980        -0.676439         0.773059
 H         1.315788        -1.314036        -0.862062
 H        -3.073684        -1.140112         0.571188
 H        -1.719000         0.563940         1.726389
 H        -4.617291         0.753781        -0.069673
 H        -3.596601        -1.031121        -2.370725
 H        -5.144214        -0.193787        -2.288015
 H        -2.248028         1.949823        -1.307297
 H        -4.001905         2.525208        -1.394745
