19
Iteration:  1385charge 0 multiplicity 1
 C         1.355023        -0.384888        -0.219858
 C        -0.031709        -0.113619        -0.098779
 C        -1.283744        -0.045162        -0.077194
 C        -2.699293        -0.041003         0.225370
 O        -3.005480         0.218412         1.654526
 C        -3.650780         0.856467        -0.765623
 C        -4.504689         0.054773        -1.854847
 O        -3.826181         0.817072        -2.936288
 C        -2.907377         1.526293        -1.904908
 H         1.681247         0.231034        -1.018525
 H         1.984316        -0.221232         0.642441
 H         1.430813        -1.460646        -0.457174
 H        -3.129530        -1.115823        -0.043039
 H        -2.217492         0.109312         2.175605
 H        -4.146204         1.655863        -0.099932
 H        -4.155234        -0.983729        -2.009221
 H        -5.504720         0.408525        -1.748146
 H        -1.859387         1.105743        -2.095085
 H        -2.810088         2.640103        -2.011706
