19
Iteration:  3133
 C         1.460257        -0.195843         0.048938
 C        -0.052630        -0.107264        -0.122405
 C        -1.285648        -0.169145        -0.262210
 C        -2.728806        -0.078968         0.023240
 O        -2.996959         0.034944         1.437965
 C        -3.387575         1.037598        -0.749811
 C        -4.664048         0.681707        -1.480547
 O        -4.000634         0.512660        -2.745588
 C        -2.835380         1.233916        -2.201849
 H         1.844919        -0.291625        -0.932153
 H         1.708253         0.650870         0.692016
 H         1.813769        -1.109765         0.629853
 H        -3.151967        -1.145171        -0.379113
 H        -2.700860        -0.783137         1.901702
 H        -3.319117         1.932977        -0.003223
 H        -5.149751        -0.282825        -1.371450
 H        -5.299224         1.560259        -1.390789
 H        -1.901964         0.684699        -2.279882
 H        -2.662122         2.353561        -2.539688
