19
Iteration:  4671charge 0 multiplicity 1
 C         1.412005         0.190586         0.030774
 C        -0.009715        -0.077370        -0.059953
 C        -1.202958        -0.297353        -0.073363
 C        -2.649313        -0.419835        -0.039926
 O        -3.069518        -0.517995         1.319248
 C        -3.248742         0.778182        -0.782810
 C        -4.672252         0.795901        -1.472338
 O        -4.140117         1.420876        -2.671086
 C        -2.823525         1.047278        -2.183057
 H         1.985264        -0.487252         0.609704
 H         1.772677        -0.012792        -0.947138
 H         1.746220         1.256412         0.343375
 H        -2.897601        -1.478665        -0.543812
 H        -3.440841        -1.415430         1.502854
 H        -3.312817         1.593163        -0.102997
 H        -4.849007        -0.115910        -1.722698
 H        -5.542225         1.212637        -1.017775
 H        -2.347271         0.144967        -2.616309
 H        -2.133486         1.816355        -2.429986
