19
Iteration:   513charge 0 multiplicity 1
 C         1.559280        -0.267375         0.650283
 C         0.235080         0.036701         0.135809
 C        -0.932616         0.110322        -0.215522
 C        -2.393313         0.010067        -0.071460
 O        -2.906679         0.308872         1.267594
 C        -3.171195         0.790147        -1.155148
 C        -4.718804         0.761180        -1.325245
 O        -4.729860         0.674810        -2.671239
 C        -3.254819         0.427471        -2.669420
 H         1.949518        -1.192727         0.308124
 H         2.375968         0.575852         0.459979
 H         1.481757        -0.246532         1.761129
 H        -2.516399        -1.116533        -0.099843
 H        -2.813121         1.277033         1.439608
 H        -2.712376         1.814738        -1.095694
 H        -5.204628        -0.101855        -0.843999
 H        -5.325747         1.660174        -0.989473
 H        -3.056098        -0.678856        -2.855504
 H        -2.595457         1.013642        -3.352234
