19
Iteration:  3904
 C         1.270901        -0.046842        -0.394116
 C        -0.139995        -0.145788        -0.207293
 C        -1.314787        -0.335693         0.036649
 C        -2.795143        -0.180067         0.218478
 O        -3.146865         0.070152         1.617692
 C        -3.436738         0.838674        -0.689304
 C        -4.534247         0.464003        -1.735024
 O        -3.762787         0.946305        -2.838355
 C        -2.650625         1.227569        -1.988653
 H         1.674734        -0.759792        -1.057143
 H         1.528039         0.976896        -0.666101
 H         1.838569        -0.500412         0.502164
 H        -3.236281        -1.179316        -0.020881
 H        -2.594579        -0.542080         2.157549
 H        -3.819420         1.775157        -0.085699
 H        -4.894131        -0.666280        -1.706763
 H        -5.405386         1.142223        -1.661687
 H        -1.793365         0.610666        -2.245855
 H        -2.239493         2.183577        -2.094415
