19
Iteration:  3171charge 0 multiplicity 1
 C         1.295785        -0.124638        -0.228555
 C        -0.143789        -0.187726        -0.058492
 C        -1.352451        -0.253827         0.022281
 C        -2.800893        -0.181592         0.046183
 O        -3.074891         0.076165         1.410087
 C        -3.314685         1.005347        -0.697596
 C        -4.576403         0.585605        -1.524181
 O        -3.819631         0.544910        -2.768610
 C        -2.727272         1.350743        -2.105777
 H         1.572124        -0.249118        -1.302530
 H         1.626137         0.895360        -0.322007
 H         1.950066        -0.636082         0.372073
 H        -3.381714        -1.030664        -0.280915
 H        -2.272412        -0.128588         1.876846
 H        -3.445400         1.777693         0.008922
 H        -5.124911        -0.329142        -1.266502
 H        -5.362024         1.377751        -1.522186
 H        -1.759156         0.814265        -2.410276
 H        -2.756891         2.391732        -2.383615
