19
Iteration:  1615
 C         1.425274         0.308190         0.615382
 C        -0.040539        -0.112261         0.170128
 C        -1.083177        -0.638172        -0.130466
 C        -2.531606        -0.323783        -0.218000
 O        -3.058157         0.030213         1.056869
 C        -2.855818         0.872823        -1.238832
 C        -4.359464         1.383227        -1.154550
 O        -4.629471         0.603796        -2.374768
 C        -3.229396         0.542043        -2.698042
 H         1.962580         0.178136        -0.308820
 H         1.394033         1.411258         1.016864
 H         1.980588        -0.416637         1.249497
 H        -3.096423        -1.062871        -0.623052
 H        -2.297580         0.418212         1.536808
 H        -2.222473         1.725481        -0.945018
 H        -5.071220         0.994692        -0.442624
 H        -4.401865         2.419696        -1.423740
 H        -2.920039        -0.413562        -3.149672
 H        -2.953009         1.352077        -3.495415
