19
Iteration:  3332charge 0 multiplicity 1
 C         1.407446        -0.027293        -0.410970
 C        -0.077763        -0.119636         0.004008
 C        -1.287478        -0.131339         0.116935
 C        -2.747280        -0.245664         0.159334
 O        -3.375229        -0.049872         1.459778
 C        -3.179903         0.845961        -0.793531
 C        -4.537966         0.602367        -1.452016
 O        -3.953128         1.116474        -2.735194
 C        -2.610448         0.778867        -2.209849
 H         1.983636        -1.002645        -0.348134
 H         1.274703         0.150313        -1.484707
 H         1.857545         0.807021         0.176236
 H        -3.127399        -1.211187        -0.077075
 H        -3.504042         0.898002         1.701334
 H        -2.950323         1.900992        -0.438460
 H        -4.928334        -0.448554        -1.447043
 H        -5.408865         1.198668        -1.181553
 H        -2.360175        -0.200977        -2.470269
 H        -1.891112         1.566204        -2.503615
