19
Iteration:  1620charge 0 multiplicity 1
 C         1.426351         0.296437         0.628649
 C         0.026951        -0.116156         0.202284
 C        -1.092764        -0.623555        -0.115140
 C        -2.518128        -0.336533        -0.266215
 O        -3.064597         0.057117         1.051655
 C        -2.851314         0.885570        -1.240154
 C        -4.360482         1.337888        -1.179905
 O        -4.667552         0.597134        -2.357980
 C        -3.239297         0.575568        -2.733843
 H         2.159953         0.238271        -0.306427
 H         1.592251         1.243771         1.047991
 H         1.824246        -0.410805         1.394040
 H        -3.259498        -1.231570        -0.585519
 H        -2.297925         0.486127         1.451207
 H        -2.171263         1.728026        -1.045680
 H        -5.047656         0.964564        -0.387182
 H        -4.444549         2.477599        -1.263306
 H        -2.985399        -0.456766        -3.115153
 H        -3.075834         1.399042        -3.363747
