19
Iteration:  4892
 C         1.484884        -0.211282         0.632115
 C         0.109203        -0.090535         0.256416
 C        -0.944609        -0.179176        -0.362709
 C        -2.408694        -0.148591        -0.499110
 O        -3.083582        -0.575790         0.757397
 C        -3.053423         1.185395        -0.903007
 C        -4.642474         1.102377        -1.023960
 O        -4.553908         0.683259        -2.424112
 C        -3.231784         1.245281        -2.445369
 H         1.994399         0.728819         0.893021
 H         1.757261        -0.901192         1.456447
 H         2.041386        -0.675767        -0.187734
 H        -2.743651        -0.843524        -1.239988
 H        -2.441871        -0.626816         1.501602
 H        -2.767827         2.034640        -0.235629
 H        -5.257248         0.279044        -0.344021
 H        -5.234713         1.931824        -0.876406
 H        -2.561874         0.445843        -2.857434
 H        -3.062120         2.207881        -2.837320
