19
Iteration:  3754charge 0 multiplicity 1
 C         1.509488        -0.165362        -0.145774
 C         0.028872        -0.012193         0.036916
 C        -1.171445        -0.004818         0.163911
 C        -2.669268        -0.169953         0.133566
 O        -3.266750        -0.207563         1.397262
 C        -3.242051         0.903694        -0.832417
 C        -4.696641         0.773625        -1.460946
 O        -4.107183         1.029777        -2.811508
 C        -2.791449         0.812861        -2.362352
 H         1.779618         0.557371        -1.068690
 H         2.005270         0.127447         0.824656
 H         1.769939        -1.149657        -0.415517
 H        -2.883773        -1.200736        -0.416521
 H        -2.682498        -0.700202         2.000283
 H        -2.997383         1.865417        -0.380501
 H        -5.342300        -0.267532        -1.339345
 H        -5.369774         1.678205        -1.458024
 H        -2.507522        -0.290438        -2.461069
 H        -2.113165         1.738592        -2.572782
