19
Iteration:  1622
 C         1.427396         0.279345         0.621364
 C         0.055220        -0.119968         0.216850
 C        -1.087024        -0.607420        -0.107006
 C        -2.525836        -0.341334        -0.288457
 O        -3.063845         0.066592         1.048457
 C        -2.852805         0.890340        -1.237257
 C        -4.358983         1.315485        -1.187646
 O        -4.682013         0.594769        -2.356028
 C        -3.245901         0.578504        -2.740655
 H         2.156321         0.277561        -0.199200
 H         1.642074         1.225441         1.066560
 H         1.730616        -0.388937         1.422319
 H        -3.247356        -1.254390        -0.548972
 H        -2.318042         0.512318         1.431168
 H        -2.121860         1.719632        -1.099350
 H        -5.013550         0.977716        -0.335931
 H        -4.468904         2.487595        -1.206552
 H        -3.010969        -0.401284        -3.093353
 H        -3.083647         1.458943        -3.370419
