19
Iteration:  4945charge 0 multiplicity 1
 C         1.526533        -0.206326         0.591440
 C         0.202779        -0.226479        -0.031183
 C        -1.004422        -0.187236        -0.185466
 C        -2.502687        -0.079266        -0.335765
 O        -3.107782        -0.470205         0.948629
 C        -3.108389         1.118995        -0.970862
 C        -4.637347         0.857303        -1.070389
 O        -4.515840         0.780504        -2.520255
 C        -3.161134         1.369620        -2.474215
 H         2.026594         0.739217         0.398396
 H         1.404126        -0.232220         1.650958
 H         2.282203        -1.041022         0.390851
 H        -2.867560        -0.902951        -1.123238
 H        -2.516538        -1.124857         1.378976
 H        -3.039366         2.091701        -0.325588
 H        -4.989431        -0.202539        -0.710700
 H        -5.333104         1.564961        -0.582505
 H        -2.261284         0.978369        -3.100826
 H        -3.228589         2.551235        -2.654361
