19
Iteration:  1400charge 0 multiplicity 1
 C         1.370698        -0.410810        -0.293961
 C        -0.011495         0.069366        -0.066382
 C        -1.278752        -0.044370         0.079787
 C        -2.745260        -0.043737         0.223954
 O        -3.054844         0.142696         1.622952
 C        -3.607223         0.826634        -0.715507
 C        -4.475829         0.180341        -1.832260
 O        -3.854398         0.893488        -2.910053
 C        -2.878178         1.346327        -2.045949
 H         2.031583        -0.067309        -1.184239
 H         1.958142        -0.202718         0.591141
 H         1.479349        -1.512293        -0.464358
 H        -3.045656        -1.053934         0.033060
 H        -2.189717         0.167411         2.042975
 H        -4.267006         1.537480        -0.219388
 H        -4.374551        -0.962027        -1.807914
 H        -5.633282         0.299076        -1.868048
 H        -1.875790         0.918537        -2.076577
 H        -2.728159         2.389116        -2.169095
