19
Iteration:  1472
 C         1.407011        -0.085962        -0.387152
 C         0.057137        -0.053097         0.030661
 C        -1.157182        -0.171746         0.383959
 C        -2.611029        -0.054600         0.222473
 O        -3.462084        -0.051648         1.357262
 C        -3.229312         0.927332        -0.799579
 C        -4.551395         0.521846        -1.521872
 O        -4.057784         1.005344        -2.786340
 C        -2.767720         0.815117        -2.302258
 H         1.522270         0.228923        -1.419266
 H         2.014959         0.649298         0.314670
 H         2.025293        -1.015149        -0.465972
 H        -2.798740        -1.092620        -0.105469
 H        -3.073106         0.557629         1.969526
 H        -3.386602         1.968884        -0.362730
 H        -4.794008        -0.581062        -1.685218
 H        -5.384348         1.077606        -1.101230
 H        -2.340769        -0.171608        -2.610632
 H        -1.955030         1.497025        -2.697875
