19
Iteration:  4499charge 0 multiplicity 1
 C         1.396466        -0.057524        -0.250641
 C        -0.017192         0.028990        -0.120319
 C        -1.236745        -0.122447        -0.028575
 C        -2.677544        -0.120225        -0.037867
 O        -3.341432        -0.790025         1.202155
 C        -3.384451         1.146940        -0.597639
 C        -4.619544         0.709657        -1.457614
 O        -3.817659         0.749743        -2.706099
 C        -2.748616         1.493389        -1.937337
 H         1.813016        -0.691944        -1.037798
 H         1.875528         0.912419        -0.417732
 H         1.881606        -0.531758         0.660859
 H        -2.765718        -0.919995        -0.986193
 H        -2.772874        -0.635786         1.956829
 H        -3.623003         2.007047         0.168104
 H        -5.007723        -0.266326        -1.013883
 H        -5.474883         1.487956        -1.385338
 H        -1.806288         0.993230        -2.145893
 H        -2.831384         2.482201        -2.104786
