19
Iteration:  2380charge 0 multiplicity 1
 C         1.415895         0.312906         0.389286
 C         0.064267        -0.212393         0.170919
 C        -1.082169        -0.634900         0.053731
 C        -2.509386        -0.340839        -0.172508
 O        -3.021791         0.131811         1.115316
 C        -3.017464         0.731612        -1.101433
 C        -4.530693         1.028855        -1.155955
 O        -4.533095         1.031822        -2.600147
 C        -3.144973         0.605964        -2.692909
 H         1.842938         1.044829        -0.247685
 H         1.393395         0.986086         1.248269
 H         2.181289        -0.519951         0.482024
 H        -3.087553        -1.372749        -0.369670
 H        -2.473855        -0.137310         1.854790
 H        -2.518138         1.674273        -0.899348
 H        -5.120810         0.109664        -0.919772
 H        -4.868310         1.975849        -0.648138
 H        -3.070611        -0.420748        -2.930393
 H        -2.464134         1.304585        -3.239399
