19
Iteration:  2219charge 0 multiplicity 1
 C         1.627987        -0.386536         0.544459
 C         0.291017         0.056176         0.277167
 C        -0.918266         0.071872        -0.043296
 C        -2.419237         0.059439        -0.198090
 O        -3.235584         0.088619         1.003476
 C        -3.084541         1.046887        -1.223734
 C        -4.607677         0.850209        -1.085283
 O        -4.672966         0.675502        -2.568727
 C        -3.248720         0.560938        -2.662922
 H         2.081060         0.263977         1.234701
 H         1.546657        -1.383170         1.075508
 H         2.122385        -0.497221        -0.418825
 H        -2.665370        -0.942260        -0.819561
 H        -2.678860         0.011865         1.779603
 H        -2.688539         2.017786        -0.988072
 H        -4.840216        -0.093829        -0.677297
 H        -5.106230         1.741644        -0.792696
 H        -2.821517        -0.487354        -2.744886
 H        -2.825009         1.205751        -3.437479
