19
Iteration:  1121charge 0 multiplicity 1
 C         0.729639        -0.888265        -1.099607
 C        -0.445072        -0.356007        -0.367178
 C        -1.307942         0.053198         0.325144
 C        -2.742759         0.034322         0.650410
 O        -3.332916         1.177635         1.455980
 C        -3.487022         0.187179        -0.666447
 C        -2.992399        -0.242961        -2.090646
 O        -3.298860         1.112840        -2.696423
 C        -3.554628         1.620487        -1.380201
 H         1.535586        -0.112996        -1.127425
 H         0.999415        -1.881956        -0.566549
 H         0.290099        -1.194216        -2.078656
 H        -2.896607        -0.953799         1.104900
 H        -3.675386         0.935051         2.327550
 H        -4.441848        -0.307931        -0.397332
 H        -1.946063        -0.511506        -2.231122
 H        -3.639440        -0.839753        -2.692900
 H        -2.747828         2.353404        -1.177422
 H        -4.452221         2.179575        -1.283802
