19
Iteration:  1980charge 0 multiplicity 1
 C         1.131190        -0.078492        -0.726418
 C        -0.070136        -0.024864         0.049596
 C        -1.219336         0.008609         0.585346
 C        -2.673387        -0.032523         0.322447
 O        -3.626093         0.293732         1.353521
 C        -2.871699         0.901291        -0.933257
 C        -4.353017         0.837173        -1.293943
 O        -3.995111         0.498963        -2.691590
 C        -2.630039         0.463091        -2.396015
 H         1.717665        -1.071044        -0.586825
 H         0.857236        -0.317142        -1.700903
 H         1.739727         0.799233        -0.692751
 H        -3.046003        -1.173363         0.135954
 H        -3.363600         1.173307         1.697817
 H        -2.600234         1.916358        -0.655247
 H        -4.981783        -0.087359        -0.951876
 H        -4.795581         1.851809        -1.156017
 H        -2.132813        -0.562737        -2.414330
 H        -1.934999         1.055473        -3.064471
