19
Iteration:  3255
 C         1.136022        -0.170414        -0.697014
 C        -0.160931         0.101492         0.011880
 C        -1.339290        -0.049567         0.234874
 C        -2.806762        -0.157250         0.201856
 O        -3.380119        -0.134314         1.526497
 C        -3.232639         0.914802        -0.715633
 C        -4.414142         0.559472        -1.530861
 O        -3.760072         0.818218        -2.780700
 C        -2.504356         1.053973        -2.098628
 H         0.972474        -1.265484        -0.952696
 H         1.370710         0.629202        -1.408786
 H         1.939449        -0.183436         0.108651
 H        -3.152726        -1.063369        -0.150975
 H        -2.706049         0.390768         2.039935
 H        -3.361575         1.918802        -0.289218
 H        -4.513063        -0.546488        -1.441633
 H        -5.390810         1.043055        -1.369223
 H        -1.762045         0.284825        -2.403210
 H        -1.997305         1.979834        -2.454244
