19
Iteration:  1751charge 0 multiplicity 1
 C         1.379442        -0.515486         0.623045
 C         0.200995         0.127909         0.173675
 C        -0.905888         0.468376        -0.037431
 C        -2.400636         0.084534        -0.216518
 O        -2.920396         0.167466         1.108984
 C        -3.074597         0.872506        -1.197374
 C        -4.669294         0.757799        -1.140274
 O        -4.704126         0.717795        -2.636261
 C        -3.226841         0.420188        -2.648564
 H         1.460154        -1.477031        -0.096161
 H         2.301503        -0.026229         0.688401
 H         1.170555        -1.039765         1.575811
 H        -2.462767        -0.939870        -0.543438
 H        -2.141471         0.527397         1.594068
 H        -2.886277         1.923524        -1.192455
 H        -4.920392        -0.256231        -0.790222
 H        -5.245449         1.539344        -0.782093
 H        -3.048650        -0.632594        -2.840665
 H        -2.591072         0.810043        -3.388469
