19
Iteration:   357charge 0 multiplicity 1
 C         1.202135         0.024160        -0.548370
 C        -0.220086         0.096788        -0.247298
 C        -1.277717        -0.017269         0.329136
 C        -2.697208         0.044006         0.267057
 O        -3.506502         0.223999         1.464099
 C        -3.001663         0.924482        -0.847530
 C        -4.484231         0.911090        -1.396810
 O        -3.844787         0.489410        -2.669768
 C        -2.562467         0.282681        -2.177342
 H         1.254103        -0.049618        -1.765038
 H         1.722181         0.965504        -0.388058
 H         1.666434        -0.949225        -0.369729
 H        -2.885560        -0.958568        -0.167025
 H        -3.411143        -0.634285         1.976603
 H        -2.804603         2.032506        -0.630756
 H        -5.207917         0.160244        -1.014226
 H        -4.866262         1.946071        -1.389860
 H        -2.330002        -0.803010        -2.231003
 H        -1.734091         0.849677        -2.783445
