19
Iteration:  2137
 C         1.451941        -0.102946         0.401860
 C         0.028322        -0.219943        -0.009563
 C        -1.151711        -0.343969        -0.121452
 C        -2.606074        -0.048104        -0.023281
 O        -2.763748         0.559974         1.255533
 C        -3.255447         0.895634        -0.977475
 C        -4.736697         0.633115        -1.369693
 O        -4.424636         0.675826        -2.763637
 C        -2.972851         0.733180        -2.463086
 H         1.581410         0.256835         1.512746
 H         1.988827        -1.029490         0.254543
 H         1.986797         0.665936        -0.187666
 H        -3.163244        -1.113811        -0.088543
 H        -2.457379        -0.006520         2.017749
 H        -3.086213         1.898878        -0.473368
 H        -5.162395        -0.310157        -1.081430
 H        -5.559472         1.218246        -0.960869
 H        -2.527747        -0.281867        -2.636959
 H        -2.384838         1.536489        -3.014762
