19
Iteration:  4610
 C         1.370264         0.135149        -0.281744
 C        -0.075499        -0.172759        -0.120866
 C        -1.261067        -0.157801         0.126328
 C        -2.680861        -0.367011        -0.011584
 O        -3.389769        -0.557888         1.203303
 C        -3.237093         0.911295        -0.710978
 C        -4.572798         0.593414        -1.403045
 O        -3.925295         1.096525        -2.694308
 C        -2.663500         1.400477        -2.007463
 H         1.924648        -0.850634        -0.190824
 H         1.508109         0.637070        -1.291871
 H         1.710568         0.877555         0.384618
 H        -2.833265        -1.271038        -0.692434
 H        -2.602702        -0.671223         1.804390
 H        -3.324846         1.625264         0.214238
 H        -4.791964        -0.353685        -1.492183
 H        -5.461714         1.178125        -1.043695
 H        -1.884841         0.727999        -2.345964
 H        -2.470744         2.518620        -2.103461
