19
Iteration:  3753
 C         1.520337        -0.160755        -0.143849
 C         0.022279        -0.006587         0.036838
 C        -1.164808        -0.016123         0.160990
 C        -2.661330        -0.175068         0.133099
 O        -3.264287        -0.207307         1.398601
 C        -3.249294         0.915848        -0.830518
 C        -4.698651         0.778093        -1.457388
 O        -4.113498         1.024764        -2.818171
 C        -2.792242         0.816065        -2.363589
 H         1.764581         0.560701        -1.014611
 H         2.006688         0.090963         0.827072
 H         1.755789        -1.170411        -0.374274
 H        -2.881232        -1.207248        -0.446868
 H        -2.702700        -0.712855         1.987923
 H        -2.972320         1.880102        -0.371238
 H        -5.344411        -0.228136        -1.332100
 H        -5.369689         1.648253        -1.458917
 H        -2.530864        -0.283045        -2.463580
 H        -2.110992         1.693380        -2.588340
