19
Iteration:  4249charge 0 multiplicity 1
 C         1.485810         0.141485         0.621518
 C         0.192246        -0.113827         0.179040
 C        -1.004712        -0.332168        -0.138089
 C        -2.421298        -0.398971        -0.390694
 O        -3.193387        -0.589881         0.895752
 C        -2.920174         0.893420        -1.136151
 C        -4.473338         1.162949        -0.955419
 O        -4.677833         1.268998        -2.411014
 C        -3.291252         0.858804        -2.632930
 H         1.592163         1.160372         1.066036
 H         1.884849        -0.533411         1.405074
 H         2.162414         0.029146        -0.172964
 H        -2.677060        -1.335638        -1.054108
 H        -2.543458        -0.889290         1.587783
 H        -2.279252         1.809452        -1.055058
 H        -5.044645         0.175759        -0.626845
 H        -4.684936         1.989633        -0.330792
 H        -3.226370        -0.145214        -3.191330
 H        -2.778686         1.489236        -3.483094
