19
Iteration:  2102
 C         1.353366        -0.147454         0.184678
 C        -0.043543        -0.083071        -0.150458
 C        -1.308582        -0.102381        -0.290617
 C        -2.667242        -0.032297         0.193013
 O        -2.803501         0.479384         1.550323
 C        -3.339219         0.797171        -0.883206
 C        -4.729708         0.689651        -1.520283
 O        -4.214183         0.676849        -2.854996
 C        -2.786155         0.569241        -2.284982
 H         1.559336        -0.145991         1.381562
 H         1.846098        -0.980892        -0.231423
 H         1.827838         0.734102        -0.246459
 H        -3.271426        -1.082331         0.160117
 H        -1.957677         0.133737         1.979731
 H        -3.153996         1.855672        -0.688315
 H        -5.059552        -0.289319        -1.442157
 H        -5.338075         1.544537        -1.189937
 H        -2.581221        -0.498356        -2.408014
 H        -2.045735         1.111738        -2.948690
