19
Iteration:  2370charge 0 multiplicity 1
 C         1.416095         0.327241         0.439501
 C         0.113154        -0.270024         0.122198
 C        -1.076958        -0.534827         0.047094
 C        -2.511701        -0.406277        -0.158528
 O        -3.107933         0.193079         1.087705
 C        -2.938408         0.763303        -1.163425
 C        -4.466526         0.981776        -1.138708
 O        -4.589419         1.012241        -2.551835
 C        -3.145238         0.628192        -2.689712
 H         1.673266         0.933441        -0.365086
 H         1.359634         0.639902         1.520932
 H         2.196224        -0.513861         0.533331
 H        -2.980288        -1.396026        -0.576350
 H        -2.578641        -0.130118         1.805311
 H        -2.287652         1.544514        -0.817309
 H        -4.989843         0.162801        -0.615354
 H        -4.829352         1.846963        -0.547320
 H        -3.034506        -0.420116        -3.073984
 H        -2.776162         1.337012        -3.472341
