19
Iteration:  1825charge 0 multiplicity 1
 C         1.508924        -0.169639         0.195251
 C         0.052879        -0.387693         0.230711
 C        -1.077345        -0.121423         0.115112
 C        -2.528391        -0.028926         0.010833
 O        -2.977697         0.630022         1.254328
 C        -3.185556         0.873840        -1.062973
 C        -4.655517         0.636257        -1.330772
 O        -4.496659         0.563259        -2.745065
 C        -3.015520         0.755249        -2.609792
 H         2.041288        -1.072901        -0.058982
 H         1.796470         0.735098        -0.341731
 H         1.942438        -0.121367         1.208800
 H        -2.918031        -1.007239        -0.100880
 H        -2.893425         0.097290         2.040320
 H        -2.962385         1.910034        -0.897545
 H        -5.034298        -0.361020        -0.953412
 H        -5.256502         1.504370        -1.043951
 H        -2.333911        -0.066323        -3.023844
 H        -2.701749         1.764038        -3.086415
