19
Iteration:  2845charge 0 multiplicity 1
 C         1.479103         0.285454         0.506906
 C         0.096107        -0.153406         0.299758
 C        -1.007922        -0.500223        -0.113820
 C        -2.460994        -0.412028        -0.324314
 O        -3.112122        -0.165999         0.966115
 C        -2.966329         0.816730        -1.163394
 C        -4.417597         1.050870        -1.045772
 O        -4.584457         1.292156        -2.477995
 C        -3.325855         0.556504        -2.616285
 H         1.532738         1.156142         1.220725
 H         2.259391        -0.502713         0.782650
 H         1.837040         0.704169        -0.478126
 H        -2.863277        -1.296713        -0.762256
 H        -2.895713        -0.898916         1.529800
 H        -2.292528         1.646216        -0.975440
 H        -4.919257         0.177519        -0.591829
 H        -4.865243         1.868291        -0.506657
 H        -3.515597        -0.486060        -2.832913
 H        -2.609773         1.051929        -3.244967
