19
Iteration:  3627
 C         1.466980        -0.091798         0.629469
 C         0.029822        -0.243825         0.280351
 C        -1.086667        -0.126891        -0.296628
 C        -2.468844        -0.225025        -0.352394
 O        -3.047037        -0.154812         0.992766
 C        -2.970915         1.043005        -1.161785
 C        -4.522686         1.149425        -1.072651
 O        -4.594591         0.562026        -2.391278
 C        -3.162073         0.936419        -2.636673
 H         1.526258         0.878401         1.020968
 H         1.736736        -0.796835         1.447737
 H         2.024793        -0.387873        -0.403097
 H        -2.872226        -1.180297        -0.954072
 H        -2.380721         0.054755         1.670449
 H        -2.404853         1.921637        -0.681491
 H        -5.048590         0.624736        -0.256601
 H        -4.792997         2.245000        -1.146899
 H        -2.704360         0.163940        -3.283819
 H        -2.967062         1.806447        -3.243876
