19
Iteration:  1039
 C         1.099454        -0.513793        -0.611942
 C        -0.301421        -0.430218        -0.392649
 C        -1.445892        -0.288610         0.101729
 C        -2.828032        -0.019232         0.474937
 O        -2.722550         0.946355         1.455617
 C        -3.930128         0.438541        -0.735360
 C        -3.729127        -0.219044        -2.102710
 O        -3.188173         0.950270        -2.664093
 C        -3.564592         1.733398        -1.484396
 H         1.644766         0.294206        -0.019499
 H         1.547355        -1.406832        -0.095998
 H         1.583443        -0.421997        -1.640499
 H        -3.213896        -0.937649         0.895788
 H        -3.466450         1.497666         1.652007
 H        -4.924488         0.327387        -0.278273
 H        -3.020204        -1.156073        -2.179241
 H        -4.677189        -0.527128        -2.672968
 H        -2.716501         2.347375        -1.117599
 H        -4.457501         2.408177        -1.721719
