19
Iteration:  2795charge 0 multiplicity 1
 C         1.558994         0.015905         0.308637
 C         0.132415        -0.023974         0.100389
 C        -1.064655         0.115547         0.072164
 C        -2.448745        -0.314769        -0.154893
 O        -3.244279        -0.471113         1.109683
 C        -3.067202         0.754782        -1.070928
 C        -4.648004         1.089155        -1.131664
 O        -4.447085         1.208769        -2.612582
 C        -3.140418         0.579752        -2.587168
 H         1.682916         0.168277         1.427310
 H         2.003266        -0.932191         0.125212
 H         2.194875         0.671152        -0.300091
 H        -2.479443        -1.343073        -0.667218
 H        -2.527349        -0.462636         1.788578
 H        -2.470622         1.642397        -0.679623
 H        -5.360031         0.272342        -0.895985
 H        -4.948496         2.067102        -0.544244
 H        -3.152129        -0.549461        -2.827129
 H        -2.474651         1.230855        -3.350399
