19
Iteration:   361
 C         1.214206         0.027528        -0.560321
 C        -0.209030         0.112192        -0.253327
 C        -1.297050        -0.015610         0.306104
 C        -2.735633         0.011188         0.279198
 O        -3.467327         0.224310         1.431758
 C        -3.013244         0.919540        -0.820776
 C        -4.482397         0.933976        -1.403493
 O        -3.859344         0.489633        -2.670292
 C        -2.560988         0.270779        -2.160327
 H         1.434684        -0.074286        -1.594933
 H         1.797397         1.051073        -0.314883
 H         1.660859        -0.943932        -0.207129
 H        -2.933531        -0.972615        -0.170171
 H        -3.466877        -0.551648         1.965800
 H        -2.702150         1.910485        -0.700851
 H        -5.134758         0.187102        -0.943355
 H        -4.885530         1.991017        -1.446028
 H        -2.420990        -0.846189        -2.281111
 H        -1.825544         0.875446        -2.646098
