19
Iteration:  3877
 C         1.316544         0.012567        -0.465592
 C        -0.069853        -0.255139        -0.095032
 C        -1.325872        -0.265927         0.050544
 C        -2.807237        -0.228992         0.233627
 O        -3.194117         0.121629         1.590361
 C        -3.437984         0.831140        -0.666168
 C        -4.538111         0.473149        -1.752122
 O        -3.798093         1.009887        -2.851313
 C        -2.628061         1.129027        -1.959206
 H         1.559792        -0.548818        -1.434363
 H         1.328372         1.097550        -0.405422
 H         1.906256        -0.575631         0.128994
 H        -3.175610        -1.335180        -0.010127
 H        -2.930752        -0.638363         2.147416
 H        -3.616144         1.718519        -0.089878
 H        -4.598565        -0.576389        -1.722033
 H        -5.476164         1.068009        -1.703252
 H        -1.837687         0.327641        -2.252058
 H        -2.101810         2.178729        -2.153558
