19
Iteration:  4637charge 0 multiplicity 1
 C         1.445217         0.165454        -0.163304
 C        -0.007742        -0.073469        -0.058610
 C        -1.192655        -0.302886        -0.014588
 C        -2.677933        -0.402624        -0.001647
 O        -3.283621        -0.483800         1.296483
 C        -3.323138         0.789486        -0.743073
 C        -4.623275         0.715770        -1.469994
 O        -4.031689         1.246977        -2.704493
 C        -2.706482         1.242587        -2.050551
 H         1.969917        -0.705703         0.173398
 H         1.600425         0.388904        -1.208052
 H         1.840867         1.139008         0.344016
 H        -2.923018        -1.423994        -0.640583
 H        -2.979254        -1.392810         1.571560
 H        -3.251115         1.617451         0.051584
 H        -5.102233        -0.343329        -1.709012
 H        -5.334704         1.341192        -0.987212
 H        -2.051112         0.489853        -2.525095
 H        -2.404243         2.227146        -2.043957
