19
Iteration:  2288charge 0 multiplicity 1
 C         1.636795        -0.243382         0.613301
 C         0.185271         0.056238         0.302509
 C        -0.959824         0.110041        -0.102992
 C        -2.400919        -0.079991        -0.176859
 O        -3.028321        -0.248137         1.127734
 C        -3.107961         0.951809        -1.177950
 C        -4.645335         1.319404        -1.256166
 O        -4.716209         0.713901        -2.634418
 C        -3.322703         0.461598        -2.633243
 H         2.232393         0.730134         0.703672
 H         1.798891        -0.542284         1.585401
 H         2.002175        -0.877906        -0.132221
 H        -2.454757        -1.133918        -0.776528
 H        -2.315402        -0.627714         1.700025
 H        -2.486025         1.883140        -1.131933
 H        -5.284265         0.645375        -0.680719
 H        -4.797648         2.406335        -1.274489
 H        -3.264069        -0.608892        -2.672395
 H        -2.869040         0.924627        -3.566385
