19
Iteration:  2067charge 0 multiplicity 1
 C         1.419253        -0.165663        -0.192087
 C        -0.045331        -0.052537        -0.092684
 C        -1.202328        -0.070491         0.185601
 C        -2.728425        -0.003521         0.266812
 O        -3.038168         0.379774         1.588860
 C        -3.318051         0.921669        -0.936636
 C        -4.676492         0.683387        -1.599017
 O        -4.114540         0.685604        -2.899055
 C        -2.782106         0.463926        -2.259526
 H         1.889422        -0.478378         0.807532
 H         1.757574        -0.872319        -1.009716
 H         1.707989         0.848439        -0.490897
 H        -3.076362        -1.135147         0.110724
 H        -2.146961         0.700640         1.916298
 H        -3.186601         1.955047        -0.685753
 H        -5.262636        -0.141783        -1.366793
 H        -5.467234         1.450713        -1.427971
 H        -2.518146        -0.584652        -2.188434
 H        -1.963679         1.058795        -2.692318
