19
Iteration:  1149
 C         0.645198        -0.943355        -1.150370
 C        -0.425879        -0.297165        -0.295028
 C        -1.345639         0.055088         0.440632
 C        -2.803580         0.148933         0.613934
 O        -3.309287         1.096008         1.555190
 C        -3.537010         0.216406        -0.749541
 C        -2.873636        -0.260598        -2.161511
 O        -3.302413         1.051444        -2.672491
 C        -3.567447         1.628489        -1.418098
 H         1.286408        -0.104285        -1.281630
 H         1.154002        -1.819730        -0.830349
 H         0.028290        -1.217785        -2.021354
 H        -2.985734        -0.922153         0.945156
 H        -2.664876         1.236997         2.304099
 H        -4.508080        -0.259874        -0.584960
 H        -1.725741        -0.292087        -2.141557
 H        -3.305875        -0.990665        -2.878279
 H        -2.771053         2.371569        -1.156766
 H        -4.515642         2.267728        -1.341976
