19
Iteration:  3911charge 0 multiplicity 1
 C         1.223690        -0.083609        -0.359893
 C        -0.176011        -0.143437        -0.213353
 C        -1.348229        -0.296409         0.045553
 C        -2.749302        -0.195862         0.194138
 O        -3.125411         0.063080         1.592115
 C        -3.416957         0.815447        -0.674734
 C        -4.519091         0.473356        -1.716188
 O        -3.790542         0.920187        -2.849654
 C        -2.640455         1.269046        -1.987854
 H         1.674589        -0.738468        -1.163287
 H         1.673560         0.871963        -0.656804
 H         1.694905        -0.259832         0.547614
 H        -3.085014        -1.285950        -0.026450
 H        -2.590456        -0.433742         2.212149
 H        -3.512176         1.729857        -0.133410
 H        -4.851122        -0.501772        -1.849649
 H        -5.469188         1.007427        -1.536177
 H        -1.723068         0.582897        -2.037057
 H        -2.346832         2.396384        -2.209699
