19
Iteration:  3931charge 0 multiplicity 1
 C         1.254890        -0.116292        -0.308068
 C        -0.163147        -0.148325        -0.216421
 C        -1.328933        -0.175970         0.049009
 C        -2.838895        -0.303705         0.151583
 O        -3.130706         0.055767         1.522171
 C        -3.352493         0.833854        -0.700788
 C        -4.515562         0.454927        -1.614312
 O        -3.790645         0.892153        -2.823227
 C        -2.687916         1.340620        -2.045467
 H         1.748751        -1.050291        -0.863800
 H         1.701159         0.775145        -0.868593
 H         1.860426        -0.344282         0.734291
 H        -3.186884        -1.305050         0.001406
 H        -2.419607        -0.279985         2.127889
 H        -3.576745         1.672591        -0.131081
 H        -4.812957        -0.579220        -1.464118
 H        -5.473055         1.010811        -1.567933
 H        -1.705427         0.989427        -2.455254
 H        -2.516837         2.485668        -2.006856
