19
Iteration:  1316
 C         1.298771        -0.347268        -0.135413
 C        -0.216112        -0.370314        -0.242006
 C        -1.400250        -0.398814        -0.250743
 C        -2.806707        -0.135441         0.323681
 O        -2.679146         0.712217         1.467144
 C        -3.796574         0.689265        -0.691337
 C        -4.220861        -0.071284        -1.991317
 O        -3.514612         0.854719        -2.847476
 C        -3.291303         1.756732        -1.687846
 H         1.597435         0.539350        -0.548753
 H         1.680408        -0.398364         0.943187
 H         1.648898        -1.195317        -0.677029
 H        -3.099031        -1.216305         0.534806
 H        -2.144342         0.304392         2.182838
 H        -4.630459         0.799696        -0.051203
 H        -4.009581        -1.089738        -2.297330
 H        -5.240646         0.209843        -2.121351
 H        -2.215838         2.018561        -1.511720
 H        -3.972837         2.659664        -1.802131
