19
Iteration:  4383
 C         1.491660        -0.040340         0.353530
 C         0.091421        -0.124368         0.016294
 C        -1.125315        -0.085612        -0.210144
 C        -2.488688        -0.311032        -0.198817
 O        -3.132214        -0.478766         1.022901
 C        -3.194954         0.906388        -0.862260
 C        -4.711120         0.671985        -1.190555
 O        -4.399331         1.242662        -2.563973
 C        -2.904939         1.146559        -2.328500
 H         2.053822         0.522827        -0.469923
 H         1.674296         0.594615         1.266443
 H         1.868689        -0.999709         0.349474
 H        -2.719460        -1.320838        -0.873596
 H        -2.586718        -1.059193         1.586053
 H        -2.919478         1.798216        -0.339358
 H        -5.046934        -0.303277        -1.113993
 H        -5.360127         1.365840        -0.745601
 H        -2.611423         0.235750        -2.888835
 H        -2.463165         2.143405        -2.600847
