19
Iteration:   726
 C         1.328286         0.315120        -0.025757
 C        -0.083028        -0.009792        -0.079131
 C        -1.305303        -0.341815         0.054986
 C        -2.790200        -0.319238         0.019032
 O        -3.202170         0.043446         1.345538
 C        -3.026726         0.851455        -0.953915
 C        -4.390122         1.174754        -1.336985
 O        -4.272934         0.523276        -2.583754
 C        -2.700645         0.528511        -2.421894
 H         1.667396        -0.204951         0.951940
 H         1.816561        -0.207197        -0.855068
 H         1.557746         1.404590        -0.075518
 H        -3.333690        -1.280097        -0.393694
 H        -2.509266         0.592637         1.789776
 H        -2.474936         1.693926        -0.568869
 H        -5.088195         0.606995        -0.667535
 H        -4.667283         2.277966        -1.373745
 H        -2.307351        -0.498009        -2.614810
 H        -2.168296         1.299576        -2.978553
