19
Iteration:  4850
 C         1.503132        -0.173085         0.570128
 C         0.149467        -0.087560         0.101059
 C        -1.051866         0.049992        -0.105229
 C        -2.432903        -0.272915        -0.392632
 O        -3.106409        -0.756777         0.780341
 C        -3.035573         1.087098        -0.934686
 C        -4.545590         1.154635        -1.027434
 O        -4.599596         0.858002        -2.444535
 C        -3.205723         1.110413        -2.531237
 H         1.602769         0.711131         1.278901
 H         1.665012        -1.151272         1.149121
 H         2.217094        -0.114653        -0.203451
 H        -2.456093        -1.126842        -1.052162
 H        -2.674032        -0.304176         1.513713
 H        -2.492604         1.931863        -0.611814
 H        -5.185292         0.518003        -0.333902
 H        -4.994674         2.149001        -0.685092
 H        -2.589776         0.381179        -3.051254
 H        -3.089476         2.101385        -3.076499
