19
Iteration:  2573
 C         1.363174        -0.144675        -0.360879
 C        -0.047870        -0.103387        -0.124193
 C        -1.195134         0.042004         0.165385
 C        -2.652587        -0.113997         0.091680
 O        -3.407018         0.001458         1.349907
 C        -3.291324         0.958834        -0.755973
 C        -4.541323         0.498088        -1.413775
 O        -3.892006         0.600790        -2.702024
 C        -2.726208         1.239945        -2.140795
 H         1.676997        -1.181989        -0.799772
 H         1.754091         0.567952        -1.157190
 H         1.745679        -0.068638         0.644191
 H        -2.755479        -1.156843        -0.322396
 H        -3.160444        -0.801419         1.814577
 H        -3.272891         1.872974        -0.073888
 H        -4.928573        -0.475425        -1.167926
 H        -5.428164         1.129681        -1.486953
 H        -1.831788         0.796185        -2.526783
 H        -2.629712         2.320165        -2.346117
