19
Iteration:    55
 C         1.509094        -0.420951         0.395220
 C         0.162991        -0.014245         0.041823
 C        -1.015350         0.229751        -0.150183
 C        -2.479183        -0.017572        -0.014533
 O        -2.859358         0.318768         1.403617
 C        -3.407324         0.939951        -0.988393
 C        -4.842656         0.360113        -1.412321
 O        -4.450701         0.714928        -2.828290
 C        -3.029615         0.832749        -2.449594
 H         1.780913        -0.340733         1.391884
 H         1.595082        -1.609015         0.317806
 H         2.258733         0.105454        -0.225743
 H        -2.720568        -1.052099        -0.149268
 H        -2.318946         1.139408         1.490488
 H        -3.545154         1.931770        -0.564895
 H        -4.806086        -0.714037        -1.410596
 H        -5.779147         0.848229        -1.092501
 H        -2.633272        -0.122198        -2.650700
 H        -2.358340         1.532310        -2.907159
