19
Iteration:  4591
 C         1.365898         0.087491        -0.380465
 C        -0.042594        -0.102950        -0.080439
 C        -1.213440        -0.266843         0.171591
 C        -2.650109        -0.226368         0.030998
 O        -3.417629        -0.656181         1.185613
 C        -3.247952         1.009645        -0.602157
 C        -4.539106         0.654985        -1.496504
 O        -3.902588         0.991517        -2.701285
 C        -2.713318         1.419924        -1.985227
 H         1.960866        -0.885378        -0.414971
 H         1.539745         0.740423        -1.294849
 H         1.824658         0.641901         0.430212
 H        -2.919192        -1.032408        -0.837230
 H        -3.034263        -0.321623         2.034108
 H        -3.658402         1.783756         0.208396
 H        -4.780020        -0.528048        -1.424392
 H        -5.505104         1.148487        -1.458748
 H        -1.873417         0.883974        -2.396952
 H        -2.652301         2.436174        -2.011375
