19
Iteration:  3755charge 0 multiplicity 1
 C         1.497107        -0.167288        -0.148222
 C         0.037491        -0.018536         0.036815
 C        -1.180090         0.006725         0.166956
 C        -2.676866        -0.165850         0.132223
 O        -3.269648        -0.207513         1.396210
 C        -3.234912         0.890462        -0.834411
 C        -4.695249         0.769057        -1.465392
 O        -4.101197         1.034503        -2.804675
 C        -2.789839         0.809843        -2.359047
 H         1.794525         0.540414        -1.104716
 H         2.003267         0.164896         0.811922
 H         1.788082        -1.142695        -0.462034
 H        -2.881505        -1.180800        -0.377181
 H        -2.661259        -0.686659         2.012207
 H        -3.027340         1.854418        -0.390370
 H        -5.323262        -0.287040        -1.349836
 H        -5.368947         1.700219        -1.445195
 H        -2.476672        -0.285278        -2.466192
 H        -2.119966         1.765351        -2.560450
