19
Iteration:   677
 C         1.342884         0.313443         0.463931
 C         0.043227        -0.261322         0.026575
 C        -1.162198        -0.420898        -0.221091
 C        -2.694124        -0.223537        -0.170226
 O        -3.030979         0.063514         1.166732
 C        -2.900215         1.046745        -1.117780
 C        -4.462839         1.324817        -1.238949
 O        -4.493202         0.317927        -2.404866
 C        -3.015718         0.512606        -2.505522
 H         1.790809        -0.176277         1.275448
 H         2.101085         0.403732        -0.367984
 H         0.995601         1.319151         0.626481
 H        -3.214681        -1.064133        -0.536222
 H        -2.569447         0.851973         1.493464
 H        -2.062264         1.783160        -0.973494
 H        -5.145844         1.081546        -0.416133
 H        -4.723733         2.308138        -1.672714
 H        -2.440520        -0.370831        -2.781752
 H        -2.874418         1.383499        -3.203348
