19
Iteration:   438
 C         1.328196         0.140070        -0.030563
 C         0.016030        -0.292179         0.221874
 C        -1.190787        -0.317057         0.089540
 C        -2.629237        -0.066313         0.102621
 O        -3.030637         0.424745         1.352307
 C        -3.083474         0.892107        -1.014236
 C        -4.601036         0.853592        -1.378171
 O        -4.332911         0.581693        -2.742979
 C        -2.893029         0.480651        -2.522936
 H         1.812049        -0.236281        -0.891897
 H         1.399235         1.321447        -0.073674
 H         1.944745         0.013596         0.884107
 H        -3.102125        -1.039910        -0.080543
 H        -2.267536         0.379940         1.933843
 H        -2.848655         1.847828        -0.731715
 H        -5.168706         0.020676        -0.921642
 H        -5.158270         1.814028        -1.150736
 H        -2.374439        -0.530734        -2.613376
 H        -2.494383         1.169910        -3.244224
