19
Iteration:  1259charge 0 multiplicity 1
 C         1.191138        -0.512354        -0.439686
 C        -0.290906        -0.415437        -0.312158
 C        -1.498130        -0.342958        -0.182164
 C        -2.833584        -0.055339         0.360790
 O        -2.906708         0.994459         1.410321
 C        -3.873306         0.482869        -0.651631
 C        -3.787630        -0.250700        -2.047636
 O        -3.360247         1.039361        -2.696238
 C        -3.326980         1.634673        -1.407769
 H         1.771764         0.330222        -0.783470
 H         1.575215        -0.959024         0.488037
 H         1.485011        -1.249300        -1.208458
 H        -3.298191        -1.011734         0.769623
 H        -2.095074         1.491570         1.231733
 H        -4.866192         0.629362        -0.291830
 H        -2.953955        -0.958982        -2.114964
 H        -4.634915        -0.676223        -2.521937
 H        -2.365096         2.016231        -1.036858
 H        -4.005192         2.545275        -1.316418
