19
Iteration:  3638
 C         1.398507        -0.048213         0.587886
 C         0.080920        -0.276833         0.261130
 C        -1.040013        -0.268643        -0.229145
 C        -2.493472        -0.160848        -0.334371
 O        -3.069970        -0.124181         1.002420
 C        -2.996819         1.018808        -1.064494
 C        -4.494794         1.144671        -1.106480
 O        -4.574983         0.577198        -2.468547
 C        -3.189404         0.950225        -2.635139
 H         1.707950         0.941202         0.752399
 H         1.805198        -0.689981         1.401778
 H         2.161318        -0.272537        -0.332510
 H        -2.861962        -1.218760        -0.752806
 H        -2.281370        -0.066781         1.533262
 H        -2.381817         1.947979        -0.828504
 H        -5.063308         0.579996        -0.337637
 H        -4.871189         2.210501        -1.111652
 H        -2.582018         0.199508        -3.176910
 H        -3.216481         1.950550        -2.973698
