19
Iteration:  3072charge 0 multiplicity 1
 C         1.577448        -0.328788         0.280272
 C         0.127569        -0.048446         0.144466
 C        -1.083182        -0.016030        -0.136136
 C        -2.531676        -0.049366        -0.117350
 O        -3.194824        -0.076145         1.155602
 C        -3.217200         1.104430        -0.890977
 C        -4.724885         0.751805        -1.231884
 O        -4.380441         0.610027        -2.671061
 C        -2.969354         1.066560        -2.437056
 H         2.053552         0.269431        -0.662481
 H         2.148370         0.189757         1.125135
 H         1.962925        -1.425464         0.138696
 H        -2.750671        -1.006073        -0.664883
 H        -2.616474        -0.635678         1.700805
 H        -2.962145         2.045634        -0.528512
 H        -4.954459        -0.319345        -0.995056
 H        -5.603075         1.401363        -0.927979
 H        -2.185121         0.357023        -2.895716
 H        -2.755553         1.979619        -2.905523
