19
Iteration:  4666
 C         1.419570         0.190840        -0.005840
 C         0.000671        -0.050892        -0.046167
 C        -1.170916        -0.330999        -0.059632
 C        -2.649314        -0.465659        -0.044571
 O        -3.095013        -0.510455         1.325367
 C        -3.294326         0.810980        -0.748673
 C        -4.673383         0.825890        -1.515472
 O        -4.123882         1.392933        -2.662088
 C        -2.805107         1.055040        -2.172209
 H         2.033184        -0.539462         0.644965
 H         1.812767         0.063660        -1.087368
 H         1.710078         1.129831         0.339053
 H        -2.851026        -1.369568        -0.512968
 H        -3.421732        -1.386489         1.516690
 H        -3.261955         1.719342         0.020490
 H        -4.986924        -0.434782        -1.749860
 H        -5.642557         1.251112        -1.101773
 H        -2.332011         0.193798        -2.675719
 H        -2.190451         1.997664        -2.416521
