19
Iteration:  4626charge 0 multiplicity 1
 C         1.365346         0.143179        -0.231365
 C        -0.022715        -0.116609        -0.069234
 C        -1.224299        -0.189327         0.020079
 C        -2.653426        -0.435673        -0.035771
 O        -3.327202        -0.492771         1.258494
 C        -3.267722         0.800314        -0.652585
 C        -4.579839         0.691431        -1.485415
 O        -4.007828         1.181731        -2.670654
 C        -2.701398         1.307955        -2.057497
 H         2.020543        -0.681166         0.026773
 H         1.643843         0.401750        -1.241021
 H         1.604437         0.999121         0.500994
 H        -2.893601        -1.419259        -0.646760
 H        -2.914563        -1.149639         1.872361
 H        -3.194017         1.655296         0.083072
 H        -4.962820        -0.444099        -1.547492
 H        -5.427024         1.310500        -1.228916
 H        -1.901314         0.760652        -2.598787
 H        -2.320224         2.284862        -2.008319
