19
Iteration:   640
 C         1.488280         0.077390         0.648197
 C         0.114203        -0.136368         0.299038
 C        -0.993836        -0.195328        -0.217901
 C        -2.495509        -0.105799        -0.269983
 O        -3.015771         0.138433         1.059462
 C        -2.939808         1.027268        -1.286808
 C        -4.510160         1.201859        -1.157681
 O        -4.716769         0.336628        -2.395769
 C        -3.271578         0.513066        -2.691594
 H         1.998270        -0.644795         1.435937
 H         2.058492         0.211762        -0.228894
 H         1.561943         1.021779         1.246982
 H        -3.065159        -0.986163        -0.612313
 H        -2.323122        -0.305100         1.618579
 H        -2.249838         1.915628        -1.310454
 H        -4.931140         0.726982        -0.261609
 H        -4.895173         2.182251        -1.372683
 H        -2.796727        -0.419795        -3.046268
 H        -3.060290         1.256090        -3.495910
