19
Iteration:  4164charge 0 multiplicity 1
 C         1.386571         0.076966         0.550898
 C         0.113911        -0.163699         0.013565
 C        -1.074804        -0.231722        -0.183053
 C        -2.456641        -0.397287        -0.351416
 O        -3.167966        -0.485648         0.875746
 C        -2.967475         1.015368        -0.978894
 C        -4.474188         1.209203        -0.971383
 O        -4.554233         0.911119        -2.396573
 C        -3.099060         0.982042        -2.577219
 H         1.175659         0.571178         1.614961
 H         1.939055        -0.947346         0.411242
 H         1.883898         0.890396         0.061709
 H        -2.908898        -1.230879        -1.060931
 H        -2.656382        -1.069352         1.431646
 H        -2.230155         1.658220        -0.678206
 H        -5.122703         0.509714        -0.345908
 H        -4.907882         2.153584        -0.497060
 H        -2.825776         0.084939        -3.142034
 H        -2.651287         1.829074        -3.028815
