19
Iteration:  3250charge 0 multiplicity 1
 C         1.120380        -0.148612        -0.676424
 C        -0.158129         0.058215        -0.004088
 C        -1.364494        -0.041684         0.229043
 C        -2.783684        -0.177931         0.183097
 O        -3.357031        -0.101744         1.501502
 C        -3.298354         0.947035        -0.708645
 C        -4.392673         0.546548        -1.532172
 O        -3.758047         0.807876        -2.763453
 C        -2.495307         1.029947        -2.082289
 H         1.037561        -1.172186        -1.007692
 H         1.526230         0.585294        -1.397029
 H         1.950348        -0.210258         0.063200
 H        -3.243001        -1.210271        -0.205637
 H        -2.714578         0.359052         2.021479
 H        -3.274516         1.941339        -0.188301
 H        -4.512913        -0.544369        -1.441042
 H        -5.307739         1.158856        -1.446581
 H        -1.655392         0.332218        -2.279787
 H        -2.207822         2.059781        -2.341425
