19
Iteration:   402charge 0 multiplicity 1
 C         1.385087         0.137259        -0.361964
 C        -0.026233        -0.019520         0.031783
 C        -1.215901        -0.243865         0.179768
 C        -2.736683        -0.082447         0.289141
 O        -3.251313         0.323726         1.503193
 C        -3.145980         0.793228        -0.906063
 C        -4.547444         1.030354        -1.496388
 O        -4.137678         0.525948        -2.764275
 C        -2.744913         0.346840        -2.354885
 H         1.740372        -0.256191        -1.390388
 H         1.537885         1.275239        -0.252895
 H         1.887619        -0.542228         0.356083
 H        -3.196961        -1.081740         0.086745
 H        -2.976464        -0.346844         2.161387
 H        -2.570136         1.760822        -0.823089
 H        -5.434003         0.464620        -1.139180
 H        -4.834556         2.120372        -1.592320
 H        -2.158494        -0.584328        -2.546096
 H        -2.102921         1.210168        -2.773577
