19
Iteration:  1734
 C         1.381020        -0.572269         0.690071
 C         0.163072         0.162706         0.235476
 C        -0.916602         0.520388        -0.152562
 C        -2.272489         0.087748        -0.206763
 O        -2.866104         0.052844         1.138079
 C        -3.148630         0.896160        -1.238648
 C        -4.658320         0.861499        -1.165443
 O        -4.702510         0.696434        -2.621976
 C        -3.319754         0.365039        -2.712340
 H         1.684961        -1.376983         0.089634
 H         2.148170         0.263071         0.875999
 H         1.252565        -1.072033         1.659716
 H        -2.151833        -1.108257        -0.507709
 H        -2.260865         0.424901         1.806280
 H        -2.827238         2.005259        -1.271877
 H        -5.072324        -0.006545        -0.600963
 H        -5.083814         1.912598        -0.854445
 H        -3.117536        -0.751308        -2.831694
 H        -2.931054         1.039885        -3.556484
