19
Iteration:  3546charge 0 multiplicity 1
 C         1.512153        -0.321500         0.694222
 C         0.143289        -0.155693         0.324722
 C        -0.921572         0.186983        -0.081710
 C        -2.303757        -0.072030        -0.333648
 O        -3.028323        -0.296988         0.840288
 C        -3.008195         1.011551        -1.189618
 C        -4.512415         1.203449        -1.098149
 O        -4.791215         0.654578        -2.402180
 C        -3.380158         0.698891        -2.730937
 H         1.863210         0.259253         1.710247
 H         1.706834        -1.397785         0.981161
 H         2.153415         0.322669         0.059960
 H        -2.325094        -1.111025        -1.021861
 H        -2.884046         0.420640         1.519361
 H        -2.411634         1.869582        -1.015158
 H        -4.948987         0.709123        -0.211802
 H        -4.790104         2.326653        -1.128251
 H        -3.036270        -0.226747        -3.147693
 H        -3.290606         1.630408        -3.309224
