19
Iteration:  2917
 C         1.300726         0.302786         0.759740
 C         0.114105        -0.099452         0.014200
 C        -0.993044        -0.585306        -0.174971
 C        -2.473396        -0.436095        -0.364838
 O        -2.907820        -0.247809         1.029152
 C        -2.934580         0.727581        -1.119328
 C        -4.390809         1.348838        -1.054641
 O        -4.703275         1.144432        -2.499945
 C        -3.353349         0.560500        -2.652362
 H         1.231372         1.356181         1.065535
 H         1.511725        -0.332678         1.599960
 H         2.165437         0.120147         0.075992
 H        -2.957121        -1.411764        -0.764191
 H        -2.042211        -0.158397         1.447337
 H        -2.120989         1.420527        -0.971617
 H        -5.182225         0.814599        -0.520334
 H        -4.640084         2.328101        -0.623888
 H        -3.351116        -0.461639        -3.064988
 H        -2.792229         1.303507        -3.142991
