19
Iteration:  2007charge 0 multiplicity 1
 C         1.185978        -0.102379        -0.598828
 C        -0.123123        -0.091848        -0.020289
 C        -1.111983        -0.053224         0.655942
 C        -2.617009        -0.061285         0.328502
 O        -3.518289         0.386989         1.280390
 C        -2.934351         0.875891        -0.940369
 C        -4.453910         0.730998        -1.335180
 O        -4.064867         0.598233        -2.704757
 C        -2.682110         0.497455        -2.346834
 H         1.938028        -0.836538        -0.240155
 H         1.028582        -0.520011        -1.696324
 H         1.633666         0.938281        -0.721481
 H        -2.834350        -1.055747         0.158905
 H        -3.642284         1.335288         1.163891
 H        -2.604442         1.941182        -0.722564
 H        -4.782423        -0.363164        -0.988626
 H        -5.090257         1.606692        -1.177597
 H        -2.128970        -0.442225        -2.528936
 H        -2.065109         1.245448        -2.876832
