19
Iteration:  4966charge 0 multiplicity 1
 C         1.544389        -0.181231         0.502188
 C         0.180719        -0.207327         0.107977
 C        -0.983275        -0.139934        -0.251364
 C        -2.474332        -0.209135        -0.375327
 O        -3.066824        -0.378931         0.963207
 C        -3.215803         1.110797        -0.809881
 C        -4.716573         0.777376        -1.174901
 O        -4.491920         0.900711        -2.603635
 C        -3.115352         1.298739        -2.346970
 H         2.184347         0.573245         0.094211
 H         1.758386        -0.122392         1.528991
 H         2.033977        -1.206092         0.321385
 H        -2.742846        -1.015708        -1.163077
 H        -2.849593        -1.178555         1.444507
 H        -2.882859         1.966375        -0.083707
 H        -5.095980        -0.083994        -0.778171
 H        -5.491783         1.505665        -0.810544
 H        -2.340724         0.615463        -2.846285
 H        -2.986987         2.362341        -2.820405
