19
Iteration:  2297
 C         1.639783        -0.153377         0.625481
 C         0.207549         0.046337         0.316696
 C        -0.956919        -0.057856        -0.062482
 C        -2.391132        -0.085113        -0.239680
 O        -3.041854        -0.202068         1.109768
 C        -3.084241         0.987363        -1.195996
 C        -4.673793         1.262654        -1.238625
 O        -4.725870         0.759259        -2.596639
 C        -3.314715         0.457338        -2.664443
 H         2.118933         0.770990         0.333796
 H         1.828587        -0.660336         1.608284
 H         2.093202        -0.862753        -0.039038
 H        -2.672306        -1.012177        -0.838995
 H        -2.522988        -0.662588         1.801637
 H        -2.425600         1.856816        -1.140481
 H        -5.330608         0.836459        -0.475766
 H        -4.912064         2.331800        -1.224279
 H        -3.074605        -0.656487        -2.796270
 H        -2.663175         0.816449        -3.459516
