19
Iteration:   816charge 0 multiplicity 1
 C         1.333136        -0.197064        -0.456070
 C        -0.067532         0.153201        -0.159437
 C        -1.259592         0.181943         0.323011
 C        -2.650529        -0.155956         0.334469
 O        -3.420089         0.149591         1.476904
 C        -3.153547         0.786580        -0.856651
 C        -4.516419         0.324615        -1.525702
 O        -3.942329         0.973056        -2.709793
 C        -2.658663         0.787571        -2.228773
 H         2.228599        -0.206062         0.342808
 H         1.467111        -1.106877        -0.948911
 H         1.640389         0.491472        -1.268225
 H        -2.753553        -1.284063        -0.000686
 H        -4.049218        -0.618981         1.628192
 H        -3.251309         1.902697        -0.632962
 H        -4.750760        -0.750488        -1.797687
 H        -5.420782         0.815978        -1.085454
 H        -2.355707        -0.205132        -2.629788
 H        -1.986351         1.613051        -2.557422
