19
Iteration:  1444
 C         1.385999        -0.261812        -0.359212
 C        -0.016442        -0.085685        -0.045120
 C        -1.230618         0.179916         0.223897
 C        -2.706081        -0.116061         0.238593
 O        -3.390347         0.021995         1.476154
 C        -3.302417         0.804141        -0.809577
 C        -4.485955         0.330752        -1.613532
 O        -4.010083         0.980049        -2.762012
 C        -2.662069         1.047610        -2.216153
 H         1.503250         0.218675        -1.401241
 H         2.028571         0.294098         0.291852
 H         1.746996        -1.292422        -0.500727
 H        -2.730454        -1.204847        -0.044415
 H        -2.763147         0.418859         2.081310
 H        -3.434146         1.736847        -0.291928
 H        -4.655775        -0.757483        -1.802329
 H        -5.534175         0.544863        -1.268187
 H        -2.018596         0.349720        -2.770541
 H        -2.241223         2.043505        -2.260740
