19
Iteration:    23
 C         1.524706        -0.208841         0.281561
 C         0.091658        -0.159747        -0.061148
 C        -1.115762         0.099345        -0.091256
 C        -2.564023         0.055802         0.023003
 O        -3.069927         0.144397         1.416067
 C        -3.219415         1.064675        -1.017735
 C        -4.692409         0.667949        -1.311537
 O        -4.395962         0.557229        -2.766334
 C        -2.953910         0.677648        -2.496507
 H         1.705936        -0.187911         1.370563
 H         1.993933        -1.107861        -0.095633
 H         2.084571         0.630711        -0.162711
 H        -2.851132        -0.946785        -0.306377
 H        -2.596912         0.912989         1.832075
 H        -3.091959         2.103040        -0.734318
 H        -4.907544        -0.334978        -0.914002
 H        -5.480746         1.353201        -1.020279
 H        -2.507998        -0.284940        -2.699963
 H        -2.461515         1.432363        -3.111492
