19
Iteration:  3866
 C         1.209817        -0.023846        -0.447171
 C        -0.116853        -0.276997        -0.084800
 C        -1.303123        -0.224661         0.097880
 C        -2.713919        -0.209444         0.231865
 O        -3.205917         0.121548         1.543901
 C        -3.374087         0.800419        -0.720280
 C        -4.511253         0.451633        -1.691825
 O        -3.795537         1.032226        -2.814643
 C        -2.631804         1.121404        -2.022576
 H         1.328960        -0.171363        -1.569593
 H         1.593661         1.004028        -0.425316
 H         1.939921        -0.380070         0.174111
 H        -3.191237        -1.248567        -0.085953
 H        -2.992574        -0.600597         2.129070
 H        -3.717008         1.577632        -0.078869
 H        -4.840724        -0.555076        -1.883810
 H        -5.493106         0.968509        -1.499993
 H        -1.901910         0.269795        -2.312464
 H        -2.109650         2.181482        -1.989105
