19
Iteration:   937charge 0 multiplicity 1
 C         1.203519        -0.223838        -0.210312
 C        -0.196617        -0.144218        -0.350000
 C        -1.432732        -0.391094        -0.168231
 C        -2.777061        -0.195837         0.332235
 O        -2.733308         0.621495         1.549072
 C        -3.606327         0.683300        -0.669450
 C        -4.306911         0.024182        -1.839044
 O        -3.618964         0.733292        -2.863424
 C        -3.032381         1.575822        -1.873763
 H         1.382144         0.389544         0.792637
 H         1.661305        -1.103174         0.090728
 H         1.916745         0.132200        -0.951152
 H        -3.237777        -1.092070         0.666046
 H        -3.517347         0.317345         2.079906
 H        -4.301034         1.301777        -0.037846
 H        -4.106294        -1.048619        -2.031374
 H        -5.461234         0.283331        -1.939227
 H        -1.961299         1.805591        -2.078167
 H        -3.635445         2.565338        -1.753241
