19
Iteration:  3952
 C         1.371549        -0.178361        -0.288399
 C        -0.027162        -0.155966        -0.135670
 C        -1.263760        -0.267593        -0.022870
 C        -2.701958        -0.189236         0.176688
 O        -3.217438        -0.000833         1.517720
 C        -3.378230         0.972846        -0.730037
 C        -4.616711         0.485910        -1.639355
 O        -3.858723         0.823118        -2.853639
 C        -2.765280         1.384682        -2.010236
 H         1.824823        -1.188179        -0.602710
 H         1.605398         0.667235        -0.989515
 H         1.940983        -0.156347         0.782240
 H        -3.117070        -1.084269        -0.198907
 H        -2.545285        -0.224782         2.180764
 H        -3.813592         1.594616        -0.023175
 H        -4.801765        -0.640182        -1.619816
 H        -5.606991         0.994867        -1.459288
 H        -1.815222         0.986691        -2.272069
 H        -2.580123         2.427381        -2.150303
