19
Iteration:  3664
 C         1.520040         0.014169         0.472191
 C         0.115126        -0.298390         0.091563
 C        -1.050053        -0.482812        -0.066348
 C        -2.549749        -0.234274        -0.255184
 O        -3.145288        -0.043785         1.101426
 C        -3.069061         1.059321        -1.034123
 C        -4.639174         1.055542        -1.172820
 O        -4.514754         0.665006        -2.532741
 C        -3.049405         1.035192        -2.615489
 H         1.876204         1.073701         0.487477
 H         1.726713        -0.286368         1.489509
 H         2.316133        -0.251169        -0.174147
 H        -2.952900        -1.134556        -0.607899
 H        -2.449962        -0.404505         1.636678
 H        -2.510680         1.952711        -0.691449
 H        -5.117222         0.358636        -0.323402
 H        -5.040585         2.043595        -1.208314
 H        -2.481565         0.081486        -3.007174
 H        -2.862800         1.985573        -3.269991
