19
Iteration:    66
 C         1.527471        -0.488507         0.431441
 C         0.187045         0.048538         0.119088
 C        -1.013737         0.237867        -0.197560
 C        -2.536005        -0.005390         0.008071
 O        -2.800562         0.375045         1.384127
 C        -3.427213         0.803867        -0.927684
 C        -4.740122         0.312702        -1.506772
 O        -4.488814         0.762064        -2.831554
 C        -3.110715         0.864062        -2.462363
 H         1.861422        -0.257665         1.400490
 H         1.427088        -1.623058         0.178490
 H         2.294059        -0.192522        -0.301927
 H        -2.727653        -1.062764        -0.078784
 H        -2.314957         1.243082         1.546049
 H        -3.473885         1.816022        -0.546095
 H        -4.880161        -0.745279        -1.398243
 H        -5.674078         0.746334        -1.125378
 H        -2.540005         0.007411        -2.751120
 H        -2.693013         1.774445        -2.865877
