19
Iteration:  2108charge 0 multiplicity 1
 C         1.346533        -0.123598         0.256757
 C        -0.086730        -0.112588        -0.127994
 C        -1.264027        -0.136885        -0.308930
 C        -2.684421        -0.037323         0.128803
 O        -2.768034         0.498807         1.481502
 C        -3.312491         0.796053        -0.870504
 C        -4.736681         0.687512        -1.471578
 O        -4.236417         0.682741        -2.846156
 C        -2.805394         0.586148        -2.312667
 H         1.504657        -0.026750         1.257618
 H         1.875470        -1.037726        -0.230523
 H         2.040378         0.661134        -0.152814
 H        -3.164294        -0.969256         0.111996
 H        -2.074388         0.152209         2.067704
 H        -3.121962         1.844949        -0.582909
 H        -5.109501        -0.452692        -1.279601
 H        -5.432266         1.483699        -1.124200
 H        -2.550689        -0.486773        -2.454189
 H        -2.088192         1.188098        -2.839640
