19
Iteration:  2599
 C         1.405802        -0.215204        -0.279375
 C        -0.042926         0.099605        -0.144781
 C        -1.259439        -0.016490        -0.031318
 C        -2.788079        -0.087024         0.120902
 O        -3.154809        -0.117403         1.480520
 C        -3.466461         1.092887        -0.662181
 C        -4.586865         0.637770        -1.564534
 O        -3.814332         0.479357        -2.808580
 C        -2.790541         1.193233        -2.034424
 H         1.369767        -1.329108        -0.479616
 H         1.930047         0.140043        -1.155085
 H         2.021618         0.071512         0.733931
 H        -3.093062        -1.115530        -0.480470
 H        -2.747070        -0.905714         1.839278
 H        -3.516618         2.012602        -0.089645
 H        -5.124945        -0.268726        -1.269710
 H        -5.371248         1.409451        -1.771832
 H        -1.824345         0.690806        -2.164248
 H        -2.500610         2.203513        -2.285607
