19
Iteration:   974charge 0 multiplicity 1
 C         1.229693        -0.266166        -0.223704
 C        -0.294256        -0.306018        -0.255225
 C        -1.479417        -0.235991        -0.296794
 C        -2.920027        -0.070349         0.304359
 O        -2.471274         0.714944         1.409775
 C        -3.930583         0.609533        -0.659057
 C        -4.219709        -0.109773        -2.000265
 O        -3.395347         0.777311        -2.734645
 C        -3.159549         1.584204        -1.609064
 H         1.317856         0.537886         0.470850
 H         1.577902        -1.266336         0.195303
 H         1.624393         0.204465        -1.143012
 H        -3.331142        -1.077176         0.540847
 H        -2.994300         0.459488         2.232921
 H        -4.819392         1.059432        -0.216384
 H        -3.954602        -1.233683        -1.996671
 H        -5.251296        -0.034572        -2.332638
 H        -2.078427         1.612763        -1.460804
 H        -3.608611         2.571134        -1.747686
