19
Iteration:   234
 C         1.341268        -0.180142        -0.256604
 C        -0.172920        -0.231745        -0.266317
 C        -1.299401         0.074545         0.034994
 C        -2.765157         0.011558         0.217286
 O        -3.007484         0.626953         1.643556
 C        -3.472036         0.832591        -0.787762
 C        -4.657255         0.281353        -1.649241
 O        -3.901968         0.557820        -2.862312
 C        -2.630710         0.879609        -2.089589
 H         1.916401         0.805094        -0.697321
 H         1.648436        -0.248932         0.728690
 H         1.823881        -1.060594        -0.749254
 H        -3.112270        -1.014214         0.212010
 H        -2.683314        -0.051170         2.319440
 H        -3.443936         1.910598        -0.546009
 H        -4.739334        -0.786935        -1.556221
 H        -5.668228         0.556043        -1.489977
 H        -1.884977         0.196742        -2.377839
 H        -2.138888         1.898396        -2.300203
