19
Iteration:  1799charge 0 multiplicity 1
 C         1.698372        -0.423211         0.411672
 C         0.213326        -0.162270         0.205527
 C        -0.971183         0.029042         0.041449
 C        -2.496163         0.067118        -0.072356
 O        -3.115536         0.510816         1.179449
 C        -3.221669         0.923187        -1.074996
 C        -4.705529         0.606361        -1.280682
 O        -4.606674         0.640556        -2.730693
 C        -3.153266         0.657873        -2.625211
 H         2.175314        -1.295640        -0.028850
 H         2.196553         0.568946         0.018403
 H         2.005391        -0.471103         1.474616
 H        -2.788347        -0.899731        -0.278652
 H        -2.565709         0.336639         1.947664
 H        -3.026711         2.015166        -0.940439
 H        -4.921950        -0.406324        -1.063128
 H        -5.390763         1.413163        -0.856143
 H        -2.586151        -0.274546        -2.947928
 H        -2.634237         1.387201        -3.302344
