19
Iteration:  4325
 C         1.594428        -0.002006         0.499730
 C         0.192690        -0.068616         0.217400
 C        -1.021056        -0.153072        -0.030416
 C        -2.427760        -0.335140        -0.327534
 O        -3.033841        -0.697261         1.059850
 C        -3.118065         0.828406        -1.058725
 C        -4.688853         0.900691        -1.175442
 O        -4.594922         1.461488        -2.500512
 C        -3.244559         0.928687        -2.620626
 H         2.068045         0.861612         0.057737
 H         1.870413        -0.163398         1.533233
 H         2.160206        -0.826491         0.060582
 H        -2.453310        -1.359726        -0.938330
 H        -3.130414         0.088228         1.628157
 H        -2.630886         1.837932        -0.885823
 H        -5.209129         0.051467        -1.050873
 H        -5.124045         1.623064        -0.628983
 H        -3.131085        -0.019370        -3.143375
 H        -2.521415         1.649201        -3.160728
