19
Iteration:  1435charge 0 multiplicity 1
 C         1.326115        -0.305774        -0.383337
 C        -0.100823        -0.041358        -0.024398
 C        -1.236101         0.169396         0.157662
 C        -2.644622        -0.103274         0.227790
 O        -3.311054         0.047991         1.507405
 C        -3.341439         0.722203        -0.797552
 C        -4.482028         0.256109        -1.628627
 O        -3.966914         0.981667        -2.787651
 C        -2.678949         1.142087        -2.192474
 H         1.615300         0.245407        -1.317713
 H         1.941924         0.224166         0.483107
 H         1.515923        -1.386515        -0.305601
 H        -2.751203        -1.110863        -0.069856
 H        -2.759439         0.391859         2.214804
 H        -3.560875         1.664879        -0.312462
 H        -4.574905        -0.853189        -1.819456
 H        -5.422690         0.794054        -1.295829
 H        -1.932821         0.445315        -2.549750
 H        -2.442395         2.207055        -2.370318
