19
Iteration:   220charge 0 multiplicity 1
 C         1.331302        -0.255591        -0.151967
 C        -0.100860        -0.158679        -0.159268
 C        -1.272847         0.051309        -0.065832
 C        -2.712961         0.045105         0.317200
 O        -2.914723         0.608581         1.528148
 C        -3.500568         0.807727        -0.799801
 C        -4.634308         0.223124        -1.648049
 O        -3.937748         0.614416        -2.877535
 C        -2.762111         0.921540        -2.143084
 H         1.684124         0.662964        -0.510041
 H         1.705430        -0.328364         0.903326
 H         1.677658        -0.987229        -0.889643
 H        -3.035580        -1.027532         0.366470
 H        -2.524629         0.040278         2.169945
 H        -3.950172         1.635216        -0.304073
 H        -4.969362        -0.829712        -1.564894
 H        -5.542769         0.814368        -1.673507
 H        -1.947629         0.130974        -2.176884
 H        -2.329746         1.883332        -2.448690
