19
Iteration:  1638
 C         1.440805         0.142261         0.708603
 C         0.143594        -0.182392         0.227632
 C        -1.061582        -0.347159        -0.078122
 C        -2.490503        -0.271756        -0.289632
 O        -3.049100         0.097672         0.972225
 C        -2.880783         0.839612        -1.322636
 C        -4.345180         1.238200        -1.070368
 O        -4.744233         0.576553        -2.392393
 C        -3.341426         0.607018        -2.730629
 H         2.184952        -0.042612        -0.096050
 H         1.210585         1.218100         1.011525
 H         1.799849        -0.501632         1.542479
 H        -2.879013        -1.159158        -0.621778
 H        -2.418270         0.716015         1.339931
 H        -2.124128         1.614349        -1.145763
 H        -4.775143         0.733894        -0.218813
 H        -4.566409         2.250495        -1.251078
 H        -2.970917        -0.284693        -3.307175
 H        -3.073100         1.498228        -3.397507
