19
Iteration:  4694
 C         1.385156         0.170413         0.132079
 C        -0.003413        -0.127598        -0.062952
 C        -1.198196        -0.198147        -0.152637
 C        -2.644168        -0.398781        -0.110898
 O        -3.065985        -0.510423         1.297734
 C        -3.207497         0.775282        -0.860425
 C        -4.667954         0.755070        -1.381942
 O        -4.177614         1.465581        -2.503022
 C        -2.804080         0.943848        -2.351228
 H         1.835303        -0.244377         0.999431
 H         2.051771        -0.111289        -0.642291
 H         1.466938         1.318623         0.358551
 H        -2.829513        -1.506557        -0.593740
 H        -3.472026        -1.354295         1.491402
 H        -3.170034         1.706855        -0.347841
 H        -4.975189        -0.164637        -1.545507
 H        -5.457889         1.257063        -0.819255
 H        -2.439942         0.154811        -3.028068
 H        -2.136998         1.786931        -2.653120
