19
Iteration:  1339charge 0 multiplicity 1
 C         1.360518        -0.327891        -0.122795
 C        -0.073864        -0.437450        -0.278863
 C        -1.352752        -0.359173        -0.181386
 C        -2.768042        -0.043036         0.173401
 O        -2.847755         0.584699         1.509165
 C        -3.716362         0.795055        -0.729046
 C        -4.361458        -0.009616        -1.864607
 O        -3.631565         0.793232        -2.835752
 C        -3.163870         1.726624        -1.750093
 H         1.512019         0.577036        -0.578113
 H         1.567104        -0.143597         0.995482
 H         1.956720        -1.137898        -0.462107
 H        -3.205066        -1.141556         0.215023
 H        -2.343140        -0.021214         2.043656
 H        -4.370783         1.068791         0.101127
 H        -3.875683        -0.998531        -1.813798
 H        -5.369627         0.082906        -2.165117
 H        -2.102487         2.086286        -1.755442
 H        -3.878698         2.618650        -1.848188
