19
Iteration:  1433charge 0 multiplicity 1
 C         1.305355        -0.301342        -0.370365
 C        -0.098692        -0.034353        -0.025768
 C        -1.244876         0.163294         0.149735
 C        -2.626318        -0.099202         0.226429
 O        -3.296977         0.051839         1.513296
 C        -3.330874         0.715902        -0.792943
 C        -4.503861         0.241774        -1.636516
 O        -3.964632         0.977580        -2.802042
 C        -2.688467         1.170464        -2.180092
 H         1.667983         0.198596        -1.341748
 H         1.894375         0.114844         0.432156
 H         1.485855        -1.382491        -0.298429
 H        -2.791185        -1.168392        -0.058709
 H        -2.694566         0.396169         2.233872
 H        -3.651764         1.645505        -0.342479
 H        -4.503663        -0.864244        -1.798417
 H        -5.408000         0.820836        -1.329561
 H        -1.880824         0.474111        -2.483579
 H        -2.392934         2.186670        -2.357267
