19
Iteration:  2784
 C         1.520421        -0.083312         0.284863
 C         0.108207         0.036151         0.106954
 C        -1.097971         0.132077         0.064344
 C        -2.475937        -0.234204        -0.102710
 O        -3.192593        -0.510758         1.085307
 C        -3.097408         0.855668        -0.994833
 C        -4.602978         0.999570        -1.173911
 O        -4.420269         1.189864        -2.604552
 C        -3.115096         0.585398        -2.567946
 H         1.996764         0.072592         1.309107
 H         1.829265        -1.004341        -0.128395
 H         1.889078         0.739277        -0.347963
 H        -2.379073        -1.239854        -0.636227
 H        -2.657338        -0.424725         1.859654
 H        -2.744462         1.917154        -0.785628
 H        -5.258585         0.174662        -0.834486
 H        -5.073000         2.035481        -0.938653
 H        -3.096432        -0.530750        -2.805942
 H        -2.293233         1.061550        -3.311542
