19
Iteration:  2997charge 0 multiplicity 1
 C         1.731016        -0.098219         0.511821
 C         0.305410        -0.086623         0.187045
 C        -0.929254        -0.067520         0.083103
 C        -2.425913        -0.202337        -0.172285
 O        -3.272145        -0.356326         0.960340
 C        -3.058737         0.936246        -1.162085
 C        -4.624648         1.125350        -1.140017
 O        -4.731284         0.890564        -2.558052
 C        -3.282558         0.763662        -2.622569
 H         2.303038         0.701001         0.277332
 H         1.695891        -0.294167         1.613045
 H         2.310379        -0.897049        -0.045088
 H        -2.426745        -1.184737        -0.767096
 H        -2.791952         0.091227         1.679848
 H        -2.532861         1.850826        -1.037132
 H        -5.173468         0.377296        -0.566256
 H        -4.961539         2.133524        -1.053563
 H        -2.886063        -0.157018        -3.026044
 H        -2.797068         1.535769        -3.262880
