19
Iteration:  4462
 C         1.433803        -0.014262        -0.077658
 C        -0.008316        -0.159948        -0.032215
 C        -1.190357        -0.122601        -0.038050
 C        -2.566378        -0.264826        -0.202347
 O        -3.233944        -0.487871         1.139134
 C        -3.348816         0.928083        -0.665214
 C        -4.666215         0.750457        -1.369663
 O        -3.992276         0.813064        -2.688625
 C        -2.866728         1.489064        -1.977299
 H         1.796495        -0.197633        -1.090181
 H         1.685510         1.024557         0.174014
 H         1.857462        -0.698282         0.701244
 H        -2.768088        -1.220369        -0.854476
 H        -2.725406        -1.189670         1.580511
 H        -3.214512         1.630814         0.102910
 H        -5.112704        -0.153268        -1.331422
 H        -5.404816         1.514256        -1.176481
 H        -1.836112         1.358273        -2.417427
 H        -2.813132         2.601121        -2.076422
