19
Iteration:  1266charge 0 multiplicity 1
 C         1.204592        -0.514098        -0.409884
 C        -0.236563        -0.372645        -0.262513
 C        -1.507139        -0.353025        -0.237155
 C        -2.899632        -0.069249         0.365551
 O        -2.846700         0.964427         1.401491
 C        -3.927123         0.442499        -0.680366
 C        -3.865458        -0.196158        -2.040283
 O        -3.358397         0.994719        -2.708959
 C        -3.305766         1.686978        -1.427447
 H         1.707447         0.542265        -0.679302
 H         1.541674        -0.860767         0.552090
 H         1.447170        -1.345593        -1.137030
 H        -3.029250        -1.030524         0.850640
 H        -1.932501         1.357138         1.318934
 H        -4.879359         0.552626        -0.065991
 H        -2.980136        -0.813862        -2.063926
 H        -4.769994        -0.620241        -2.542599
 H        -2.238976         1.937562        -1.199731
 H        -3.832173         2.628564        -1.334410
