19
Iteration:  2133
 C         1.403070        -0.122580         0.384943
 C         0.052053        -0.185672        -0.020352
 C        -1.181521        -0.323734        -0.135786
 C        -2.610887        -0.075171        -0.012307
 O        -2.750414         0.554403         1.258312
 C        -3.271317         0.883775        -0.947152
 C        -4.753637         0.642135        -1.389423
 O        -4.377051         0.677649        -2.750656
 C        -2.958244         0.721390        -2.425913
 H         1.500770         0.261638         1.440424
 H         2.028616        -0.994231         0.178871
 H         1.925058         0.657294        -0.166685
 H        -3.147124        -0.947774        -0.057513
 H        -2.416531         0.012990         1.965107
 H        -3.111693         1.905076        -0.645232
 H        -5.074618        -0.463873        -1.141581
 H        -5.552214         1.365800        -1.002889
 H        -2.548203        -0.252919        -2.602678
 H        -2.426246         1.431336        -3.075564
