19
Iteration:  1047
 C         1.116104        -0.604392        -0.638454
 C        -0.364475        -0.382604        -0.361482
 C        -1.436473        -0.237067         0.115829
 C        -2.853771        -0.003279         0.430496
 O        -2.738052         0.990705         1.501882
 C        -3.835288         0.369080        -0.728017
 C        -3.680905        -0.280146        -2.100398
 O        -3.179209         1.025450        -2.642158
 C        -3.589457         1.687476        -1.497809
 H         1.568603         0.390888        -0.267582
 H         1.477659        -1.484800        -0.285122
 H         1.196756        -0.419003        -1.727210
 H        -3.303996        -0.938799         0.889798
 H        -3.575765         1.482738         1.541970
 H        -4.887753         0.237885        -0.352966
 H        -2.899872        -0.948340        -2.363541
 H        -4.662076        -0.541424        -2.604165
 H        -2.728842         2.172001        -1.006730
 H        -4.442615         2.387566        -1.734197
