19
Iteration:  1081
 C         0.927646        -0.804625        -0.916014
 C        -0.273196        -0.327314        -0.224255
 C        -1.441554        -0.058867         0.059803
 C        -2.823337         0.017323         0.549439
 O        -3.029231         1.128409         1.444096
 C        -3.757711         0.238464        -0.676518
 C        -3.312476        -0.269817        -2.104559
 O        -3.227584         1.094028        -2.619484
 C        -3.568006         1.655904        -1.404751
 H         1.794403        -0.052859        -0.767779
 H         1.395327        -1.699027        -0.717325
 H         0.622116        -0.889236        -1.974581
 H        -3.068240        -0.959415         1.077332
 H        -3.985170         0.960771         1.677746
 H        -4.823593        -0.002877        -0.403619
 H        -2.331420        -0.758029        -2.068744
 H        -4.051835        -0.978438        -2.571453
 H        -2.740892         2.188178        -0.903480
 H        -4.393094         2.423034        -1.450941
