19
Iteration:  2807charge 0 multiplicity 1
 C         1.644416         0.065876         0.375524
 C         0.178491        -0.024373         0.091165
 C        -1.048377        -0.054911         0.078894
 C        -2.492462        -0.379790        -0.179719
 O        -3.241008        -0.399818         1.072319
 C        -3.103244         0.711222        -1.065867
 C        -4.538415         1.121527        -1.145458
 O        -4.530113         1.236322        -2.604331
 C        -3.223640         0.592650        -2.572580
 H         1.722078         0.517016         1.389221
 H         2.107679        -0.899602         0.427017
 H         2.167580         0.886021        -0.245206
 H        -2.522993        -1.393351        -0.686846
 H        -2.609676        -0.536582         1.820356
 H        -2.581144         1.686566        -1.014143
 H        -5.247946         0.288844        -0.916359
 H        -4.840191         2.082850        -0.561080
 H        -3.319665        -0.395209        -3.101652
 H        -2.266082         1.154063        -3.114034
