19
Iteration:  2768
 C         1.557347        -0.121827         0.160825
 C         0.116658         0.103271         0.232368
 C        -1.089230         0.056422         0.097083
 C        -2.539099        -0.119450        -0.139911
 O        -3.185602        -0.531168         1.102164
 C        -3.118014         0.978406        -0.972305
 C        -4.655179         0.954374        -1.226992
 O        -4.429611         1.125184        -2.694076
 C        -3.056651         0.625188        -2.424070
 H         1.824055        -0.332178         1.185296
 H         1.852536        -1.106593        -0.348042
 H         2.201583         0.575891        -0.411314
 H        -2.688814        -1.067964        -0.757896
 H        -2.578898        -0.206053         1.786970
 H        -2.630393         1.921514        -0.714481
 H        -4.915897        -0.104489        -1.190667
 H        -5.246266         1.682972        -0.693877
 H        -2.936712        -0.496318        -2.634802
 H        -2.351959         1.080008        -3.001414
