19
Iteration:   141charge 0 multiplicity 1
 C         1.652617        -0.413857         0.318920
 C         0.069811        -0.405783         0.037933
 C        -1.094897        -0.012092        -0.080335
 C        -2.546926         0.141945         0.049874
 O        -2.961137         0.631071         1.424578
 C        -3.403544         0.866597        -0.974535
 C        -4.537433        -0.009162        -1.545622
 O        -4.432617         0.735227        -2.730300
 C        -3.155036         1.219316        -2.524304
 H         1.808913         0.512201         0.693135
 H         1.917947        -1.203078         1.248331
 H         2.319291        -0.488747        -0.559763
 H        -2.875549        -0.919446        -0.018731
 H        -2.238299         1.121175         1.774109
 H        -3.994055         1.651385        -0.402950
 H        -4.288414        -1.045093        -1.856112
 H        -5.581074         0.201895        -1.059972
 H        -2.279494         0.579147        -3.027542
 H        -3.019845         2.260250        -2.810061
