19
Iteration:  3257
 C         1.143893        -0.174369        -0.686393
 C        -0.157952         0.117805         0.012150
 C        -1.329930        -0.056148         0.238312
 C        -2.805767        -0.137833         0.222116
 O        -3.387000        -0.143804         1.539446
 C        -3.200198         0.915869        -0.720332
 C        -4.433187         0.556753        -1.535360
 O        -3.761928         0.824558        -2.791605
 C        -2.511897         1.066869        -2.105844
 H         0.980125        -1.324049        -1.011555
 H         1.293145         0.600779        -1.432133
 H         1.888625        -0.165057         0.057374
 H        -3.136068        -1.165405        -0.212003
 H        -2.757497         0.378371         2.040521
 H        -3.380132         1.865743        -0.311169
 H        -4.570044        -0.537669        -1.445073
 H        -5.413648         0.989479        -1.349301
 H        -1.760090         0.182566        -2.444158
 H        -1.929103         1.978725        -2.462925
