19
Iteration:  1808
 C         1.632571        -0.336209         0.359094
 C         0.190363        -0.269645         0.212346
 C        -1.002219         0.004402         0.101117
 C        -2.501599         0.029680        -0.010146
 O        -3.068561         0.566456         1.172242
 C        -3.159804         0.906300        -1.078810
 C        -4.723314         0.623709        -1.276525
 O        -4.549066         0.609033        -2.770918
 C        -3.126323         0.714778        -2.650018
 H         2.104611        -1.233786        -0.183572
 H         1.970958         0.603210        -0.156699
 H         1.958560        -0.275709         1.408617
 H        -2.856719        -1.092946        -0.189652
 H        -2.535772         0.133157         1.854234
 H        -3.029043         1.943630        -0.683289
 H        -5.067207        -0.375708        -0.941034
 H        -5.521680         1.288578        -0.906583
 H        -2.772258        -0.270731        -2.854665
 H        -2.802118         1.570193        -3.186791
