19
Iteration:  3801
 C         1.415555        -0.106330        -0.418444
 C        -0.030805        -0.054576        -0.010400
 C        -1.252300        -0.154206         0.288491
 C        -2.692927        -0.189324         0.161810
 O        -3.420418        -0.032652         1.421987
 C        -3.264301         0.813167        -0.798371
 C        -4.517892         0.542355        -1.563217
 O        -3.991021         1.113036        -2.711198
 C        -2.647159         0.935986        -2.220246
 H         1.387362         0.194208        -1.536101
 H         1.986421         0.582874         0.228010
 H         1.742950        -1.164718        -0.289864
 H        -2.896186        -1.189641        -0.327506
 H        -2.742893        -0.063465         2.151693
 H        -3.216350         1.825530        -0.388654
 H        -4.673293        -0.595122        -1.871994
 H        -5.490435         0.977598        -1.122465
 H        -2.280363        -0.044999        -2.605134
 H        -2.071871         1.918121        -2.398689
