19
Iteration:  3640charge 0 multiplicity 1
 C         1.405529        -0.044600         0.577386
 C         0.108286        -0.281030         0.255857
 C        -1.048631        -0.300249        -0.214982
 C        -2.504209        -0.163319        -0.326634
 O        -3.073165        -0.117505         1.002630
 C        -2.997364         1.025191        -1.058058
 C        -4.493664         1.156583        -1.111760
 O        -4.575197         0.578983        -2.481168
 C        -3.206987         0.942946        -2.623910
 H         1.750898         0.921827         0.735132
 H         1.773627        -0.597500         1.426789
 H         2.125982        -0.223296        -0.316171
 H        -2.886210        -1.128195        -0.735629
 H        -2.261209        -0.092541         1.542220
 H        -2.395862         1.970387        -0.785121
 H        -5.099413         0.456086        -0.392559
 H        -4.854541         2.181155        -1.136791
 H        -2.489171         0.234983        -3.209608
 H        -3.170243         2.006227        -2.978139
