19
Iteration:  4133charge 0 multiplicity 1
 C         1.532316        -0.012643         0.446906
 C         0.183585        -0.132906         0.109897
 C        -1.016536        -0.319047        -0.196873
 C        -2.537676        -0.265614        -0.342035
 O        -3.253048        -0.437537         0.921530
 C        -3.050772         1.057938        -0.872568
 C        -4.570349         1.118693        -1.031687
 O        -4.558195         0.778403        -2.549975
 C        -3.079091         1.115637        -2.446361
 H         1.681824        -0.025418         1.577760
 H         2.191018        -0.815315        -0.006940
 H         2.012197         0.919826         0.117758
 H        -2.814410        -1.217177        -1.002943
 H        -2.766488        -0.851137         1.672929
 H        -2.476229         1.941255        -0.490814
 H        -5.085765         0.376631        -0.520183
 H        -4.888084         2.168402        -0.965152
 H        -2.430919         0.381839        -2.992784
 H        -2.709371         2.065319        -2.878329
