19
Iteration:  4103charge 0 multiplicity 1
 C         1.548007        -0.126995         0.283119
 C         0.141135        -0.189203         0.215476
 C        -1.089051        -0.190651        -0.018749
 C        -2.576103        -0.185305        -0.317287
 O        -3.153334        -0.437995         1.012119
 C        -3.171442         1.112705        -0.884892
 C        -4.630525         1.006643        -1.126851
 O        -4.432255         0.718374        -2.616240
 C        -3.014048         1.227895        -2.452184
 H         1.928327        -0.522849         1.165087
 H         2.078157        -0.730306        -0.405067
 H         1.857318         0.943896         0.107816
 H        -2.786223        -0.943088        -0.983499
 H        -2.514141        -0.925251         1.529427
 H        -2.734088         2.075446        -0.363788
 H        -5.198212         0.157634        -0.642786
 H        -5.211706         1.951399        -1.048658
 H        -2.353351         0.442615        -2.880528
 H        -2.913426         2.346300        -2.726415
