19
Iteration:  2971charge 0 multiplicity 1
 C         1.534772        -0.040027         0.598912
 C         0.166071        -0.021510         0.206648
 C        -0.997872        -0.187346        -0.131060
 C        -2.495036        -0.184535        -0.305752
 O        -3.053468        -0.419042         0.947934
 C        -3.028014         0.926907        -1.114428
 C        -4.527276         1.237253        -1.059749
 O        -4.680887         0.980888        -2.520212
 C        -3.247490         0.566523        -2.582772
 H         1.935675         1.045876         0.399279
 H         1.582234        -0.289195         1.645709
 H         2.263736        -0.497376        -0.052108
 H        -2.633128        -1.134172        -0.881094
 H        -2.822718         0.388694         1.459236
 H        -2.379146         1.799517        -0.917405
 H        -5.124380         0.515209        -0.448043
 H        -4.878196         2.312196        -0.971422
 H        -3.003740        -0.548027        -2.567033
 H        -2.775901         0.999118        -3.386249
