19
Iteration:  3314charge 0 multiplicity 1
 C         1.250648        -0.055204        -0.541491
 C        -0.030421        -0.169423         0.009827
 C        -1.203754         0.038847         0.219199
 C        -2.654820        -0.166470         0.259800
 O        -3.444370        -0.096336         1.439456
 C        -3.257061         0.766245        -0.760173
 C        -4.557294         0.646312        -1.551544
 O        -3.885944         1.062778        -2.742351
 C        -2.577255         0.806582        -2.142896
 H         1.751667        -1.113510        -0.633296
 H         1.319665         0.198834        -1.603664
 H         1.814370         0.522253         0.130970
 H        -2.700961        -1.201666        -0.189511
 H        -3.454214         0.856667         1.702698
 H        -3.346780         1.743422        -0.369203
 H        -4.867393        -0.419894        -1.597633
 H        -5.407723         1.250209        -1.207095
 H        -2.211724        -0.253694        -2.491344
 H        -1.961116         1.715313        -2.318147
