19
Iteration:  1023
 C         1.208257        -0.396043        -0.450930
 C        -0.276430        -0.477253        -0.395694
 C        -1.499759        -0.394838        -0.120948
 C        -2.867368        -0.082051         0.353650
 O        -2.683283         0.960878         1.467652
 C        -3.876604         0.521066        -0.629935
 C        -3.893702        -0.241658        -2.011890
 O        -3.168450         0.909695        -2.706316
 C        -3.513168         1.767961        -1.501454
 H         1.575931         0.503497         0.079371
 H         1.525897        -1.324768        -0.075687
 H         1.462435        -0.264468        -1.494719
 H        -3.369843        -0.991388         0.830281
 H        -3.610042         1.125112         1.621721
 H        -4.859593         0.678278        -0.139512
 H        -3.234230        -1.068514        -2.026179
 H        -4.852622        -0.473688        -2.482690
 H        -2.647950         2.360843        -1.179957
 H        -4.400178         2.339738        -1.750311
