19
Iteration:  4520
 C         1.413727        -0.056735        -0.341944
 C        -0.086059         0.053402        -0.125013
 C        -1.270772        -0.030584         0.098151
 C        -2.728307        -0.241478        -0.022856
 O        -3.292751        -0.759472         1.133178
 C        -3.414541         1.031473        -0.544516
 C        -4.608286         0.761520        -1.491563
 O        -3.758683         0.733331        -2.636014
 C        -2.725081         1.512306        -1.949943
 H         1.628745        -0.894856        -0.986626
 H         1.934981         0.809109        -0.707323
 H         1.984579        -0.347710         0.611320
 H        -2.753334        -1.084979        -0.855176
 H        -3.246474        -0.139069         1.902523
 H        -3.332118         1.876072         0.205212
 H        -5.027670        -0.134758        -1.450629
 H        -5.392324         1.564539        -1.349341
 H        -1.764829         1.030627        -2.134294
 H        -2.882875         2.516010        -2.182415
