19
Iteration:   920
 C         1.289954        -0.163248        -0.206160
 C        -0.154696        -0.245398        -0.301641
 C        -1.389960        -0.324208        -0.026868
 C        -2.782891        -0.108680         0.247928
 O        -2.832735         0.502415         1.609838
 C        -3.510974         0.764150        -0.762377
 C        -4.358617        -0.027315        -1.752874
 O        -3.716692         0.738495        -2.895725
 C        -2.994895         1.608018        -1.896224
 H         1.692968         0.371246         0.590004
 H         1.701408        -1.306188        -0.254233
 H         1.652323         0.282514        -1.166813
 H        -3.410871        -1.096849         0.219592
 H        -3.750948         0.340454         1.979798
 H        -4.184049         1.413373        -0.221957
 H        -4.203253        -1.124662        -1.752041
 H        -5.417336         0.202866        -1.781726
 H        -1.924524         1.556277        -2.093488
 H        -3.222981         2.634492        -2.090120
