19
Iteration:  4620charge 0 multiplicity 1
 C         1.353474         0.149154        -0.257297
 C        -0.053039        -0.146583        -0.084748
 C        -1.254356        -0.155474         0.054609
 C        -2.671435        -0.426084        -0.037650
 O        -3.340854        -0.514797         1.233940
 C        -3.191687         0.824236        -0.671175
 C        -4.602564         0.669669        -1.435853
 O        -3.970712         1.149569        -2.683787
 C        -2.699942         1.340920        -2.037829
 H         2.066469        -0.681436        -0.015949
 H         1.671207         0.444681        -1.285838
 H         1.660084         0.851848         0.490872
 H        -2.849508        -1.280670        -0.606170
 H        -2.860904        -0.964978         1.967756
 H        -3.378236         1.557604         0.133164
 H        -4.856412        -0.423801        -1.526432
 H        -5.590639         1.203961        -1.247479
 H        -1.885799         0.746107        -2.516098
 H        -2.270484         2.474583        -2.082311
