19
Iteration:  1230
 C         1.029571        -0.616878        -0.691038
 C        -0.399070        -0.523880        -0.385297
 C        -1.415349        -0.197045         0.183790
 C        -2.778401        -0.038437         0.544400
 O        -2.995786         1.026341         1.528162
 C        -3.728229         0.351953        -0.689865
 C        -3.535973        -0.225703        -2.152654
 O        -3.326861         1.067065        -2.739882
 C        -3.458770         1.727123        -1.470683
 H         1.584638         0.292792        -0.826473
 H         1.498081        -1.099712         0.252005
 H         1.318725        -1.267901        -1.502179
 H        -3.225399        -0.929839         0.941142
 H        -2.684932         1.828481         1.009890
 H        -4.807743         0.287302        -0.513983
 H        -2.555163        -0.846315        -2.322667
 H        -4.352350        -0.887016        -2.596198
 H        -2.515444         2.249518        -1.203771
 H        -4.349942         2.342363        -1.425339
