19
Iteration:  2645charge 0 multiplicity 1
 C         1.348703        -0.185759        -0.096776
 C        -0.105617        -0.192047        -0.056449
 C        -1.288919         0.006898        -0.136779
 C        -2.703058        -0.135846        -0.022082
 O        -2.971686        -0.113800         1.463991
 C        -3.429114         0.983076        -0.710250
 C        -4.660200         0.749869        -1.544100
 O        -3.859982         0.476736        -2.791426
 C        -2.859156         1.276786        -2.090151
 H         1.896953        -1.009567         0.291276
 H         1.753255         0.050496        -1.111750
 H         1.533637         0.748012         0.687603
 H        -3.286678        -1.054409        -0.487584
 H        -2.078204        -0.021673         1.888875
 H        -3.470000         1.785131         0.001113
 H        -5.254037        -0.186277        -1.225717
 H        -5.357928         1.599831        -1.569508
 H        -1.733876         1.155865        -2.372619
 H        -3.029678         2.230525        -2.509204
