19
Iteration:  2360charge 0 multiplicity 1
 C         1.409823         0.239910         0.488596
 C         0.138764        -0.301627         0.108404
 C        -1.069011        -0.409148        -0.007432
 C        -2.537483        -0.381167        -0.159679
 O        -3.176934         0.191834         1.026298
 C        -2.841851         0.772806        -1.194234
 C        -4.399200         0.936620        -1.024281
 O        -4.606905         0.976490        -2.528449
 C        -3.214340         0.628631        -2.701094
 H         1.620196         1.090333        -0.114764
 H         1.402846         0.857820         1.485119
 H         2.308948        -0.450719         0.372300
 H        -3.057730        -1.371820        -0.282284
 H        -2.694989        -0.180608         1.763546
 H        -2.298933         1.673795        -0.950281
 H        -4.906153         0.097605        -0.571405
 H        -4.750976         1.919965        -0.789881
 H        -3.058757        -0.375971        -3.252272
 H        -2.586263         1.371373        -3.282677
