19
Iteration:  2907charge 0 multiplicity 1
 C         1.307297         0.340800         0.729080
 C         0.142013        -0.154890         0.031623
 C        -0.963628        -0.666233        -0.177467
 C        -2.428951        -0.544072        -0.331620
 O        -2.942392        -0.177249         1.021998
 C        -2.988607         0.758277        -1.170748
 C        -4.469103         1.316550        -1.021198
 O        -4.649769         1.171381        -2.457919
 C        -3.343263         0.630160        -2.679289
 H         0.979844         1.264770         1.090609
 H         1.523774        -0.193735         1.658800
 H         2.276243         0.430230         0.112452
 H        -2.952037        -1.533485        -0.680580
 H        -2.196018        -0.223132         1.610578
 H        -2.310754         1.539197        -1.009930
 H        -4.968547         0.638111        -0.319994
 H        -4.413690         2.383826        -0.878022
 H        -3.391023        -0.401014        -3.103352
 H        -2.860215         1.173570        -3.606572
