19
Iteration:  2117
 C         1.352432        -0.108216         0.282636
 C        -0.027295        -0.131679        -0.081501
 C        -1.263403        -0.193096        -0.279636
 C        -2.650586        -0.080720         0.092314
 O        -2.747642         0.532818         1.386089
 C        -3.309788         0.891502        -0.912695
 C        -4.731317         0.621261        -1.400284
 O        -4.242373         0.714657        -2.814553
 C        -2.890076         0.571904        -2.362160
 H         1.388633        -0.072471         1.337916
 H         1.781934        -1.120383         0.088444
 H         1.931085         0.740346        -0.160376
 H        -3.078711        -1.165910         0.083287
 H        -2.150236         0.036384         1.981763
 H        -3.099949         1.911671        -0.493955
 H        -5.260620        -0.264035        -1.065853
 H        -5.520816         1.354484        -1.309999
 H        -2.384868        -0.434038        -2.536739
 H        -2.232603         1.377288        -2.671860
