19
Iteration:  2756charge 0 multiplicity 1
 C         1.592319        -0.184520         0.127295
 C         0.153812         0.123184         0.246356
 C        -1.067018        -0.030385         0.108691
 C        -2.524763        -0.164350        -0.112472
 O        -3.201123        -0.480325         1.140333
 C        -3.151457         1.070327        -0.932902
 C        -4.725026         0.856569        -1.249497
 O        -4.399572         1.084325        -2.720818
 C        -3.004413         0.741846        -2.467113
 H         2.151025        -0.426515         0.988927
 H         1.482230        -1.043914        -0.609268
 H         2.181861         0.741605        -0.256225
 H        -2.636628        -1.096840        -0.731232
 H        -2.783139         0.002759         1.854366
 H        -2.914680         2.044906        -0.573608
 H        -5.161511        -0.106616        -0.910532
 H        -5.527389         1.529544        -1.066865
 H        -2.805705        -0.361668        -2.457597
 H        -2.373889         1.264257        -3.120427
