19
Iteration:  2212charge 0 multiplicity 1
 C         1.636884        -0.346044         0.512546
 C         0.241836        -0.029566         0.302904
 C        -0.906711         0.039927        -0.009049
 C        -2.400738         0.019783        -0.229945
 O        -3.215327         0.168326         0.990044
 C        -3.074519         1.040970        -1.161644
 C        -4.621173         0.783691        -1.128631
 O        -4.673064         0.686208        -2.562707
 C        -3.217048         0.594451        -2.684918
 H         2.221009         0.235597         1.369660
 H         1.594252        -1.277708         1.003214
 H         2.177662        -0.385505        -0.424857
 H        -2.651303        -0.915724        -0.669773
 H        -2.753743         0.047425         1.804627
 H        -2.687079         2.085199        -1.054121
 H        -5.027648        -0.067954        -0.448336
 H        -5.330915         1.618476        -0.791841
 H        -2.949882        -0.414954        -2.879098
 H        -3.002092         1.333380        -3.496959
