19
Iteration:  3815charge 0 multiplicity 1
 C         1.331465        -0.070231        -0.461327
 C        -0.018301        -0.058762        -0.041434
 C        -1.192221        -0.284758         0.267823
 C        -2.706391        -0.215664         0.248278
 O        -3.460545         0.013131         1.469009
 C        -3.223982         0.859034        -0.828132
 C        -4.545972         0.423845        -1.547257
 O        -3.999126         1.171307        -2.801025
 C        -2.580268         1.003438        -2.191692
 H         1.468603         0.147792        -1.518569
 H         2.048387         0.633764        -0.015374
 H         1.908432        -1.123591        -0.053765
 H        -3.089561        -1.119407        -0.069842
 H        -2.816286        -0.146299         2.174941
 H        -3.432120         1.815846        -0.223233
 H        -4.684041        -0.676639        -1.514815
 H        -5.542659         0.833013        -1.336297
 H        -2.082097         0.169849        -2.634518
 H        -1.913077         1.805495        -2.368856
