19
Iteration:  4814charge 0 multiplicity 1
 C         1.684076        -0.062823         0.519464
 C         0.211692        -0.054320         0.164383
 C        -0.968396        -0.220432        -0.093884
 C        -2.450086        -0.372816        -0.360059
 O        -3.241685        -0.694296         0.802012
 C        -3.069038         1.084625        -0.935043
 C        -4.640263         1.134146        -1.018681
 O        -4.608506         1.032179        -2.485544
 C        -3.210616         1.039886        -2.518273
 H         1.869666         0.491160         1.427643
 H         2.081206        -1.035516         0.750433
 H         2.377791         0.484505        -0.220658
 H        -2.668951        -1.036910        -1.094041
 H        -3.240010         0.094203         1.367904
 H        -2.534288         1.981041        -0.429624
 H        -5.158564         0.090024        -0.674163
 H        -5.085873         2.094957        -0.900518
 H        -2.620349         0.140313        -2.907904
 H        -2.831261         1.852159        -3.013271
