19
Iteration:  4284
 C         1.576288         0.067860         0.596278
 C         0.169695        -0.053114         0.178320
 C        -0.971998        -0.250393        -0.095790
 C        -2.406549        -0.356552        -0.422129
 O        -3.215959        -0.582451         0.813643
 C        -2.987541         0.856552        -1.128956
 C        -4.593951         1.014449        -0.957630
 O        -4.567248         1.367218        -2.378725
 C        -3.239513         0.778915        -2.578443
 H         1.927215         1.179560         0.555097
 H         1.731761        -0.477807         1.595372
 H         2.156436        -0.365011        -0.146143
 H        -2.644005        -1.248307        -1.103181
 H        -2.814205         0.065376         1.463821
 H        -2.635715         1.756351        -0.766936
 H        -5.210722        -0.045895        -0.767727
 H        -5.073241         1.792240        -0.248504
 H        -3.553285        -0.250230        -2.953236
 H        -2.627828         1.501512        -3.221842
