19
Iteration:  4455charge 0 multiplicity 1
 C         1.458157         0.008201        -0.025847
 C         0.079736        -0.176407        -0.007561
 C        -1.158215        -0.140043        -0.060347
 C        -2.648065        -0.317094        -0.152101
 O        -3.204516        -0.456095         1.119615
 C        -3.314575         0.917704        -0.689657
 C        -4.646194         0.746757        -1.346042
 O        -4.062924         0.840189        -2.721377
 C        -2.878691         1.517917        -2.033449
 H         1.886856        -0.124477        -1.010760
 H         1.731266         1.023664         0.200451
 H         1.925865        -0.832371         0.610434
 H        -2.926096        -1.222807        -0.820965
 H        -2.880980        -1.276957         1.486487
 H        -3.376669         1.607116         0.250271
 H        -5.274037        -0.276790        -1.338341
 H        -5.372391         1.677597        -1.191434
 H        -1.846977         1.151167        -2.272165
 H        -3.000945         2.591782        -2.037346
