19
Iteration:  1216
 C         0.999914        -0.716040        -0.803611
 C        -0.352715        -0.483697        -0.327923
 C        -1.406346        -0.184777         0.275231
 C        -2.876986         0.046354         0.571139
 O        -3.023527         1.032663         1.611418
 C        -3.696790         0.341908        -0.736584
 C        -3.359289        -0.254170        -2.170018
 O        -3.318880         1.107720        -2.815229
 C        -3.537226         1.651432        -1.468274
 H         1.315337         0.224741        -1.127882
 H         1.665038        -1.280352        -0.115053
 H         1.003792        -1.174316        -1.809411
 H        -3.209382        -0.874976         1.128736
 H        -2.953941         1.896868         1.231266
 H        -4.645068         0.233665        -0.274481
 H        -2.328105        -0.841458        -2.136149
 H        -4.185376        -0.764291        -2.674650
 H        -2.728306         2.317002        -1.119521
 H        -4.386507         2.394196        -1.431547
