19
Iteration:  3126
 C         1.456673        -0.202870         0.079221
 C        -0.022718        -0.155045        -0.151774
 C        -1.241543        -0.093547        -0.196642
 C        -2.701635        -0.149793         0.006926
 O        -2.986892         0.036105         1.445941
 C        -3.379059         1.037152        -0.762880
 C        -4.688465         0.732675        -1.485158
 O        -4.023211         0.529060        -2.771325
 C        -2.883314         1.206819        -2.193957
 H         2.179514        -0.119323        -0.805964
 H         1.828350         0.578942         0.723136
 H         1.592914        -1.082969         0.639698
 H        -3.037307        -1.086233        -0.308873
 H        -2.777478        -0.851728         1.723568
 H        -3.327356         1.923126        -0.207590
 H        -5.247230        -0.178820        -1.184952
 H        -5.445663         1.544709        -1.503045
 H        -1.878342         0.672005        -2.388847
 H        -2.909286         2.208485        -2.559064
