19
Iteration:  4611
 C         1.370098         0.137952        -0.279070
 C        -0.074466        -0.173870        -0.118677
 C        -1.267060        -0.154171         0.119987
 C        -2.679406        -0.371296        -0.007232
 O        -3.385398        -0.553459         1.205009
 C        -3.221804         0.903806        -0.717491
 C        -4.583211         0.599234        -1.400516
 O        -3.926158         1.101381        -2.694727
 C        -2.663516         1.400862        -2.009450
 H         1.935513        -0.853680        -0.163238
 H         1.524307         0.641378        -1.300951
 H         1.713913         0.876382         0.385210
 H        -2.839269        -1.315552        -0.722835
 H        -2.616045        -0.694610         1.812808
 H        -3.359126         1.612747         0.255219
 H        -4.786453        -0.339463        -1.497034
 H        -5.477269         1.161692        -1.062601
 H        -1.913170         0.718846        -2.346468
 H        -2.478973         2.465895        -2.100796
