19
Iteration:   635
 C         1.545412         0.065316         0.697416
 C         0.137072        -0.108631         0.308954
 C        -1.014762        -0.189954        -0.201126
 C        -2.489351        -0.075242        -0.310442
 O        -3.013106         0.152910         1.061483
 C        -2.947060         1.000778        -1.290021
 C        -4.506867         1.201002        -1.170882
 O        -4.696271         0.341098        -2.412270
 C        -3.359275         0.509824        -2.686269
 H         1.845815        -0.728429         1.298523
 H         2.200534         0.134823        -0.274274
 H         1.766966         0.934428         1.330889
 H        -2.929036        -1.083139        -0.681664
 H        -2.467533        -0.389647         1.619427
 H        -2.378895         1.902957        -1.315423
 H        -4.792845         0.588539        -0.296853
 H        -4.975958         2.229085        -1.271434
 H        -2.905674        -0.438798        -3.047684
 H        -3.118939         1.257785        -3.448599
