19
Iteration:  2707
 C         1.510610        -0.144223         0.024189
 C         0.085124        -0.210158        -0.038443
 C        -1.106504        -0.068169         0.074326
 C        -2.584019        -0.236281        -0.015606
 O        -3.249330        -0.152816         1.242022
 C        -3.193042         0.897933        -0.832507
 C        -4.593692         0.670082        -1.348280
 O        -4.257455         0.781722        -2.678607
 C        -2.934889         1.257388        -2.408268
 H         1.794338        -0.671198         1.019977
 H         2.049640        -0.533895        -0.807310
 H         1.786722         0.867007         0.298343
 H        -2.675006        -1.257977        -0.314775
 H        -3.157787         0.782210         1.557895
 H        -3.113798         1.770076        -0.135971
 H        -5.043107        -0.318918        -1.262443
 H        -5.409701         1.336225        -0.947912
 H        -2.153901         0.681589        -2.842447
 H        -2.885055         2.429581        -2.574867
