19
Iteration:  4347charge 0 multiplicity 1
 C         1.623656        -0.028958         0.455478
 C         0.170425        -0.021912         0.137989
 C        -1.007629        -0.209769        -0.053517
 C        -2.486129        -0.342729        -0.226330
 O        -3.040652        -0.637705         1.006123
 C        -3.170642         0.880591        -0.961974
 C        -4.765646         0.858518        -1.201523
 O        -4.554879         1.409099        -2.569736
 C        -3.150998         0.998210        -2.525894
 H         2.178766         0.708044        -0.127387
 H         1.872947         0.049975         1.514410
 H         2.074588        -1.014554         0.234828
 H        -2.597486        -1.276060        -0.936882
 H        -2.611442        -0.091389         1.706773
 H        -2.878598         1.894613        -0.467865
 H        -5.131757        -0.100197        -1.284869
 H        -5.444040         1.440469        -0.701953
 H        -2.923839         0.065701        -2.940259
 H        -2.289016         1.535079        -3.001599
