19
Iteration:  1530charge 0 multiplicity 1
 C         1.388552         0.269251        -0.110738
 C        -0.016309        -0.032155         0.040589
 C        -1.230547        -0.383983         0.128463
 C        -2.707177        -0.351570         0.031733
 O        -3.324126        -0.165196         1.357928
 C        -3.030874         0.807929        -0.931045
 C        -4.455322         1.274270        -1.300993
 O        -4.216000         0.800072        -2.708380
 C        -2.807539         0.508845        -2.448539
 H         1.759047         0.653917        -1.103769
 H         1.631036         1.073637         0.521118
 H         1.930691        -0.548418         0.358127
 H        -3.029245        -1.430426        -0.307152
 H        -2.912614         0.659546         1.749132
 H        -2.494927         1.710592        -0.596487
 H        -5.292022         0.700411        -0.858814
 H        -4.657893         2.357932        -1.074586
 H        -2.528127        -0.553401        -2.676047
 H        -2.174318         1.247765        -2.840807
