19
Iteration:  4516charge 0 multiplicity 1
 C         1.418471        -0.065761        -0.323538
 C        -0.058109         0.056087        -0.137229
 C        -1.262683        -0.050626         0.074621
 C        -2.723633        -0.225728         0.007741
 O        -3.297942        -0.771665         1.123042
 C        -3.398460         1.073523        -0.542612
 C        -4.615925         0.752943        -1.474885
 O        -3.760913         0.747374        -2.635434
 C        -2.739008         1.486291        -1.956439
 H         1.505970        -0.897279        -1.034471
 H         1.922383         0.880507        -0.584455
 H         1.945487        -0.305380         0.624538
 H        -2.909356        -0.957102        -0.687249
 H        -3.137255        -0.240684         1.904725
 H        -3.346824         1.876772         0.118440
 H        -5.116954        -0.308132        -1.541991
 H        -5.382926         1.518133        -1.525414
 H        -1.745978         0.981884        -2.143080
 H        -2.944380         2.654719        -2.228088
