19
Iteration:   139charge 0 multiplicity 1
 C         1.648630        -0.415688         0.336794
 C         0.077857        -0.404675         0.033149
 C        -1.101864        -0.013318        -0.077076
 C        -2.523009         0.151019         0.013791
 O        -2.965663         0.628116         1.428740
 C        -3.401577         0.876251        -0.972542
 C        -4.535435        -0.019986        -1.546418
 O        -4.443362         0.748999        -2.718659
 C        -3.158262         1.203909        -2.527375
 H         1.871199         0.564922         0.766933
 H         1.906046        -1.233234         1.151457
 H         2.322525        -0.536630        -0.531102
 H        -2.871763        -0.930936        -0.017161
 H        -2.221253         1.158062         1.759754
 H        -4.067133         1.622097        -0.395456
 H        -4.272169        -1.084062        -1.866080
 H        -5.609824         0.229523        -1.055533
 H        -2.257749         0.553119        -2.962378
 H        -3.047203         2.267759        -2.863343
