19
Iteration:  3085charge 0 multiplicity 1
 C         1.575464        -0.270532         0.236423
 C         0.153268        -0.155617        -0.011808
 C        -1.061871         0.062757        -0.087460
 C        -2.578899        -0.059848        -0.082725
 O        -3.146165        -0.062966         1.270781
 C        -3.274609         1.054499        -0.872351
 C        -4.705627         0.730708        -1.318525
 O        -4.315950         0.600086        -2.743278
 C        -2.992687         1.095780        -2.396171
 H         2.202186         0.078829        -0.635924
 H         1.778810         0.212840         1.261230
 H         1.791146        -1.427066         0.386113
 H        -2.900864        -1.051526        -0.601673
 H        -2.803568        -0.786725         1.827935
 H        -3.188971         1.955601        -0.268523
 H        -5.158533        -0.115720        -0.763120
 H        -5.359142         1.632168        -1.289337
 H        -2.217227         0.442043        -2.790714
 H        -2.843719         2.131557        -2.708125
