19
Iteration:  4119charge 0 multiplicity 1
 C         1.618171        -0.048910         0.386161
 C         0.119101        -0.141842         0.163281
 C        -1.078854        -0.339170        -0.131859
 C        -2.475784        -0.234595        -0.251043
 O        -3.221509        -0.442325         0.952149
 C        -3.058260         1.124284        -0.935298
 C        -4.686995         1.078093        -1.167704
 O        -4.437326         0.782748        -2.488539
 C        -3.085104         1.141777        -2.474529
 H         1.885064        -0.252072         1.509011
 H         2.071346        -0.863330        -0.287565
 H         1.955074         0.938637         0.116472
 H        -2.886281        -0.987223        -1.062994
 H        -2.537462        -0.883958         1.478638
 H        -2.769341         1.883573        -0.330078
 H        -5.340626         0.343408        -0.618913
 H        -5.274017         1.998417        -0.905360
 H        -2.454225         0.443853        -3.014849
 H        -3.053726         2.120491        -2.901600
