19
Iteration:  2374
 C         1.420644         0.324642         0.415721
 C         0.089596        -0.251879         0.141874
 C        -1.082492        -0.585142         0.058831
 C        -2.508564        -0.388494        -0.175422
 O        -3.071849         0.173264         1.100487
 C        -2.984048         0.737530        -1.132723
 C        -4.497816         1.018080        -1.162105
 O        -4.568883         1.015809        -2.561957
 C        -3.131218         0.629737        -2.707964
 H         1.814709         1.026083        -0.399981
 H         1.342370         0.737462         1.501818
 H         2.136112        -0.475788         0.521805
 H        -2.928076        -1.277633        -0.516262
 H        -2.538491        -0.112316         1.897129
 H        -2.339736         1.595643        -0.842743
 H        -5.013538         0.135143        -0.761945
 H        -4.813277         1.829392        -0.518190
 H        -3.073770        -0.532427        -2.915423
 H        -2.727642         1.395344        -3.375763
