19
Iteration:   295charge 0 multiplicity 1
 C         1.111496        -0.062547        -0.741855
 C        -0.093182        -0.060126         0.169725
 C        -1.268487        -0.061158         0.417295
 C        -2.686510        -0.136321         0.338945
 O        -3.352917         0.496665         1.392836
 C        -3.140960         0.815768        -0.783854
 C        -4.512451         0.566899        -1.488663
 O        -3.892545         0.489895        -2.834419
 C        -2.550040         0.780042        -2.237646
 H         0.848025         0.453080        -1.607081
 H         2.064210         0.454266        -0.295919
 H         1.334006        -1.120356        -1.001746
 H        -3.077414        -1.182257         0.204815
 H        -2.957775         0.233678         2.272083
 H        -3.084860         1.790756        -0.326664
 H        -4.968699        -0.438141        -1.390569
 H        -5.209981         1.453891        -1.434215
 H        -1.908653        -0.107462        -2.494394
 H        -2.137072         1.731059        -2.460571
