19
Iteration:  4992
 C         1.531225        -0.216406         0.344817
 C         0.079634        -0.092548         0.197515
 C        -1.052109        -0.013573        -0.213301
 C        -2.545181        -0.240496        -0.258145
 O        -3.010168        -0.405013         1.056296
 C        -3.281076         0.896523        -0.838843
 C        -4.739079         0.753444        -1.260660
 O        -4.388331         1.060370        -2.638021
 C        -3.022304         1.252842        -2.329928
 H         2.111172         0.353885        -0.454891
 H         2.100063         0.109505         1.288014
 H         1.864633        -1.198839         0.252915
 H        -2.646907        -1.232881        -0.903213
 H        -2.732682        -1.212048         1.482888
 H        -3.001264         1.738592        -0.221705
 H        -5.333230        -0.287783        -0.914155
 H        -5.311533         1.511246        -0.841742
 H        -2.405397         0.526522        -3.063980
 H        -2.639464         2.292623        -2.546706
