19
Iteration:  2732charge 0 multiplicity 1
 C         1.592727        -0.166011         0.037437
 C         0.146579        -0.059615         0.178064
 C        -1.072536        -0.013472         0.119494
 C        -2.559875        -0.138637        -0.058282
 O        -3.232802        -0.339323         1.211406
 C        -3.176227         0.894001        -0.925735
 C        -4.677925         0.776742        -1.290366
 O        -4.404728         0.948049        -2.754627
 C        -2.935533         0.980177        -2.432330
 H         1.969507        -0.567558         0.964313
 H         1.740423        -0.923773        -0.751933
 H         2.220898         0.836451        -0.004389
 H        -2.604987        -1.126075        -0.476224
 H        -3.110615         0.409568         1.798580
 H        -2.990800         1.827896        -0.445830
 H        -5.254118        -0.138840        -1.058865
 H        -5.367494         1.543152        -0.956104
 H        -2.285202         0.230844        -2.817307
 H        -2.642138         2.042967        -2.629007
