19
Iteration:  3202charge 0 multiplicity 1
 C         1.417175        -0.077270        -0.451064
 C        -0.063801        -0.271446        -0.212493
 C        -1.259471        -0.209879         0.141368
 C        -2.752140        -0.154631         0.297395
 O        -3.363014         0.013722         1.629521
 C        -3.288100         0.973729        -0.647227
 C        -4.655192         0.653601        -1.702973
 O        -3.762248         0.596323        -2.904623
 C        -2.725126         1.275199        -2.038067
 H         1.721780        -0.649778        -1.439476
 H         1.457251         0.989687        -0.597098
 H         2.135905        -0.249192         0.298451
 H        -3.298742        -1.222732        -0.064443
 H        -2.542275         0.044127         2.211640
 H        -3.411378         1.875250        -0.077852
 H        -5.123970        -0.312843        -1.556873
 H        -5.308134         1.509920        -1.817182
 H        -1.705230         0.743756        -2.387038
 H        -2.708832         2.385055        -2.327025
