19
Iteration:  2104charge 0 multiplicity 1
 C         1.349199        -0.143566         0.211415
 C        -0.050153        -0.093008        -0.143025
 C        -1.305112        -0.112265        -0.302647
 C        -2.668944        -0.025680         0.169087
 O        -2.790312         0.485456         1.529498
 C        -3.329939         0.783456        -0.874651
 C        -4.739430         0.690396        -1.504742
 O        -4.225064         0.674960        -2.851822
 C        -2.786723         0.583956        -2.288725
 H         1.552188        -0.094136         1.345864
 H         1.846174        -0.957769        -0.232579
 H         1.921695         0.707299        -0.220568
 H        -3.293296        -1.097702         0.140641
 H        -2.009506         0.148090         2.004314
 H        -3.137675         1.874570        -0.662990
 H        -5.006010        -0.285816        -1.425552
 H        -5.329990         1.514904        -1.153768
 H        -2.584004        -0.525392        -2.426287
 H        -2.051229         1.122651        -2.943722
