19
Iteration:   551
 C         1.542359        -0.360545         0.742002
 C         0.237153         0.056870         0.370653
 C        -0.874852         0.370510        -0.034703
 C        -2.359699         0.145036        -0.344585
 O        -2.849475         0.148848         1.020693
 C        -3.090932         1.020517        -1.264838
 C        -4.697639         0.760611        -1.238797
 O        -4.839377         0.645658        -2.595710
 C        -3.373804         0.253321        -2.611299
 H         1.637552        -1.509268         0.487615
 H         2.296239         0.160755         0.094653
 H         1.753927        -0.203884         1.832194
 H        -2.495410        -0.823840        -0.783554
 H        -2.163958         0.716274         1.518079
 H        -2.856325         2.093924        -1.344070
 H        -4.861384        -0.168419        -0.635532
 H        -5.339169         1.530865        -0.854746
 H        -3.392498        -0.872125        -2.542278
 H        -2.867894         0.581552        -3.527093
