19
Iteration:  1157charge 0 multiplicity 1
 C         0.592656        -0.873316        -1.117683
 C        -0.371868        -0.349994        -0.242766
 C        -1.327062         0.067626         0.422941
 C        -2.777001         0.078780         0.574011
 O        -3.283776         1.069926         1.531427
 C        -3.599014         0.236575        -0.721227
 C        -2.878091        -0.211153        -2.087504
 O        -3.303342         1.036162        -2.692303
 C        -3.591163         1.673763        -1.459877
 H         1.523722        -0.242850        -1.526426
 H         1.095691        -1.722784        -0.738672
 H         0.042696        -1.257840        -2.019071
 H        -3.103493        -0.972172         0.903075
 H        -2.425680         1.278630         1.961728
 H        -4.674027        -0.099684        -0.729078
 H        -1.869822        -0.301253        -1.970860
 H        -3.207968        -1.019912        -2.753568
 H        -2.728471         2.138853        -1.002236
 H        -4.532197         2.237769        -1.468000
