19
Iteration:  1445
 C         1.387613        -0.254165        -0.360549
 C        -0.017906        -0.089525        -0.044659
 C        -1.216456         0.175622         0.231966
 C        -2.708715        -0.122093         0.237237
 O        -3.400677         0.018880         1.473589
 C        -3.289754         0.813835        -0.809029
 C        -4.497938         0.339167        -1.611177
 O        -4.018031         0.980411        -2.763845
 C        -2.661750         1.036562        -2.217918
 H         1.507354         0.193349        -1.411882
 H         2.093524         0.322888         0.315684
 H         1.775892        -1.274083        -0.524115
 H        -2.747611        -1.176177        -0.024888
 H        -2.763247         0.415426         2.047495
 H        -3.447166         1.752047        -0.309543
 H        -4.613315        -0.774240        -1.791919
 H        -5.556397         0.554896        -1.269640
 H        -2.030839         0.349171        -2.761532
 H        -2.177802         2.025812        -2.249912
