19
Iteration:  1073
 C         0.959188        -0.744812        -0.879618
 C        -0.276283        -0.335870        -0.206034
 C        -1.467272        -0.109366         0.001479
 C        -2.811071         0.017886         0.591407
 O        -2.965339         1.096002         1.467129
 C        -3.749427         0.266811        -0.703865
 C        -3.411363        -0.253941        -2.112422
 O        -3.210097         1.047732        -2.658165
 C        -3.568109         1.658504        -1.370393
 H         1.629903         0.059131        -0.636590
 H         1.251035        -1.804350        -0.441188
 H         0.754168        -0.775643        -1.988062
 H        -3.020755        -0.904589         1.100932
 H        -3.933829         1.165940         1.651949
 H        -4.804578         0.115701        -0.503593
 H        -2.351923        -0.754945        -2.274956
 H        -4.209047        -0.752767        -2.745668
 H        -2.766839         2.281929        -0.911669
 H        -4.520208         2.277289        -1.551403
