19
Iteration:  1189
 C         0.764046        -0.795951        -1.005618
 C        -0.236734        -0.399747        -0.111296
 C        -1.433121        -0.122695         0.201584
 C        -2.850655         0.046239         0.531375
 O        -3.165935         1.025128         1.598528
 C        -3.631098         0.358152        -0.741522
 C        -3.050880        -0.238295        -2.071421
 O        -3.322883         1.037530        -2.704158
 C        -3.598873         1.716059        -1.493476
 H         1.426886         0.000295        -1.563134
 H         1.400271        -1.600298        -0.597470
 H         0.306092        -1.218361        -1.949460
 H        -3.192787        -0.879268         1.017180
 H        -2.650712         1.800618         1.368763
 H        -4.716596         0.112346        -0.473722
 H        -2.054373        -0.507468        -2.009069
 H        -3.596420        -1.025346        -2.608571
 H        -2.822067         2.425263        -1.141607
 H        -4.518113         2.317694        -1.568618
