19
Iteration:   701charge 0 multiplicity 1
 C         1.213440         0.326581         0.230992
 C        -0.087328        -0.066596        -0.115188
 C        -1.181736        -0.539044        -0.116243
 C        -2.638874        -0.205678        -0.037382
 O        -3.128796         0.027756         1.333679
 C        -2.903847         0.994507        -0.988786
 C        -4.361419         1.230505        -1.274111
 O        -4.313791         0.397977        -2.491847
 C        -2.955887         0.534143        -2.543380
 H         1.400455        -0.242050         1.043366
 H         1.997209         0.034041        -0.580281
 H         1.257229         1.392453         0.410412
 H        -3.240011        -1.040108        -0.466699
 H        -2.962833         0.967115         1.652535
 H        -2.343978         1.878740        -0.751185
 H        -5.184220         0.920498        -0.590590
 H        -4.459575         2.307278        -1.601147
 H        -2.571628        -0.495362        -2.778960
 H        -2.536779         1.302053        -3.197397
