19
Iteration:   297charge 0 multiplicity 1
 C         1.098418        -0.051753        -0.754858
 C        -0.086523        -0.064410         0.178471
 C        -1.266696        -0.055813         0.420627
 C        -2.667534        -0.134025         0.342250
 O        -3.362643         0.489437         1.395195
 C        -3.136466         0.816368        -0.800235
 C        -4.516120         0.580456        -1.491545
 O        -3.899446         0.484079        -2.829762
 C        -2.537794         0.777799        -2.236037
 H         0.845899         0.448868        -1.611623
 H         1.994359         0.382447        -0.310316
 H         1.383838        -1.111235        -0.936109
 H        -3.037525        -1.191971         0.184881
 H        -2.993620         0.236484         2.257197
 H        -3.152379         1.760653        -0.289034
 H        -5.048956        -0.402943        -1.367351
 H        -5.165535         1.436234        -1.414285
 H        -1.947834        -0.102768        -2.508655
 H        -2.039252         1.709215        -2.468345
