19
Iteration:  4547
 C         1.329646        -0.007241        -0.392551
 C        -0.053003        -0.021485        -0.026975
 C        -1.243692        -0.010210         0.097340
 C        -2.642483        -0.319888         0.014782
 O        -3.336096        -0.687907         1.118742
 C        -3.335490         0.915625        -0.561607
 C        -4.603021         0.770881        -1.473793
 O        -3.745251         0.797015        -2.682350
 C        -2.774531         1.482887        -1.900588
 H         1.604492        -0.982599        -0.928966
 H         1.559820         0.812493        -1.158465
 H         2.045164         0.004047         0.380659
 H        -2.653571        -1.191243        -0.703045
 H        -3.729480         0.030633         1.663113
 H        -3.133650         1.784696         0.135426
 H        -5.337612        -0.260129        -1.534120
 H        -5.240778         1.664940        -1.323348
 H        -1.735231         1.217616        -2.131053
 H        -2.908472         2.581275        -1.982545
