19
Iteration:  4134
 C         1.534992        -0.014359         0.454457
 C         0.176765        -0.135553         0.102982
 C        -1.013215        -0.311950        -0.197045
 C        -2.536185        -0.271843        -0.347038
 O        -3.255828        -0.436517         0.919634
 C        -3.055500         1.050278        -0.877728
 C        -4.561456         1.119179        -1.030822
 O        -4.558852         0.781342        -2.549405
 C        -3.082378         1.110711        -2.441647
 H         1.651099         0.012700         1.547725
 H         2.165859        -0.800043         0.003147
 H         2.016212         0.939035         0.126984
 H        -2.825516        -1.196605        -0.989435
 H        -2.751004        -0.854187         1.662811
 H        -2.449935         1.958259        -0.477182
 H        -5.080119         0.397050        -0.457912
 H        -4.869895         2.162206        -0.942316
 H        -2.426912         0.383656        -3.006816
 H        -2.679899         2.065138        -2.885542
