19
Iteration:  4837charge 0 multiplicity 1
 C         1.563180        -0.112585         0.571962
 C         0.206834        -0.090736         0.081492
 C        -1.008233        -0.027736        -0.114186
 C        -2.407704        -0.243174        -0.336540
 O        -3.182151        -0.725259         0.754860
 C        -3.070597         0.976983        -0.989075
 C        -4.607709         1.172677        -1.001706
 O        -4.671467         0.908418        -2.430185
 C        -3.111594         1.082457        -2.514247
 H         1.834931         0.550478         1.412264
 H         1.731074        -1.139084         0.975800
 H         2.349322         0.088347        -0.196426
 H        -2.521955        -0.926569        -1.082184
 H        -3.080182        -0.187810         1.580198
 H        -2.665619         1.829754        -0.395436
 H        -5.261670         0.313918        -0.460328
 H        -4.785062         2.236066        -0.995200
 H        -2.678484         0.303450        -3.205667
 H        -2.759741         2.045526        -2.740083
