19
Iteration:  1826
 C         1.505417        -0.163686         0.186323
 C         0.047363        -0.384863         0.229849
 C        -1.079686        -0.133730         0.110299
 C        -2.539077        -0.021278         0.012889
 O        -2.974928         0.635089         1.259943
 C        -3.182069         0.868271        -1.054102
 C        -4.648163         0.646396        -1.331403
 O        -4.488482         0.557359        -2.746454
 C        -3.004590         0.757020        -2.613749
 H         2.076790        -1.087617        -0.073307
 H         1.730723         0.722106        -0.332692
 H         1.939723        -0.086157         1.194941
 H        -2.971286        -1.058642        -0.122691
 H        -2.906510         0.073887         2.052090
 H        -2.976363         1.902940        -0.893617
 H        -5.058052        -0.369729        -0.968505
 H        -5.248993         1.478214        -1.020157
 H        -2.346345        -0.075670        -3.006275
 H        -2.730209         1.771156        -3.056063
