19
Iteration:  4799charge 0 multiplicity 1
 C         1.594676         0.023555         0.458371
 C         0.164630        -0.119620         0.227113
 C        -0.990761        -0.316893        -0.064759
 C        -2.477593        -0.244198        -0.336930
 O        -3.197368        -0.679716         0.835624
 C        -3.042754         1.019827        -0.972222
 C        -4.612919         1.049911        -1.054056
 O        -4.635916         1.100647        -2.504387
 C        -3.076402         1.051550        -2.520613
 H         1.843781         0.431297         1.451033
 H         2.068927        -0.968537         0.337763
 H         2.041499         0.584069        -0.366563
 H        -2.640235        -1.216995        -0.996128
 H        -3.146811         0.011274         1.501928
 H        -2.568543         1.981613        -0.530684
 H        -5.023891         0.199720        -0.604042
 H        -5.082455         1.805788        -0.472564
 H        -2.925496         0.049164        -2.929540
 H        -2.663764         1.962843        -3.069587
