19
Iteration:  4304charge 0 multiplicity 1
 C         1.582254         0.019939         0.525122
 C         0.176584        -0.097748         0.262541
 C        -0.981239        -0.069732        -0.150331
 C        -2.454577        -0.405409        -0.296090
 O        -3.124979        -0.623728         0.881876
 C        -3.101102         0.774773        -1.033154
 C        -4.555628         0.979306        -1.045303
 O        -4.587986         1.427433        -2.456516
 C        -3.244253         0.856716        -2.615649
 H         1.939858         1.044498         0.300099
 H         1.771423        -0.315853         1.558604
 H         2.255856        -0.552459        -0.001984
 H        -2.461343        -1.460445        -0.915467
 H        -3.197388         0.136565         1.467080
 H        -2.587796         1.720927        -0.801927
 H        -5.081045         0.031498        -0.967876
 H        -4.946101         1.565479        -0.300602
 H        -3.365164        -0.184609        -3.110367
 H        -2.704595         1.620061        -3.330293
