19
Iteration:  1637charge 0 multiplicity 1
 C         1.440362         0.148676         0.696064
 C         0.144985        -0.175997         0.232138
 C        -1.055310        -0.363356        -0.075212
 C        -2.502805        -0.278182        -0.296398
 O        -3.049500         0.097310         0.976873
 C        -2.881158         0.844720        -1.315662
 C        -4.344003         1.238024        -1.077549
 O        -4.744190         0.577630        -2.391372
 C        -3.337695         0.606644        -2.727562
 H         2.165156        -0.032992        -0.056939
 H         1.187179         1.221787         1.016830
 H         1.775516        -0.502285         1.518754
 H        -2.884802        -1.173232        -0.612719
 H        -2.402234         0.721307         1.355925
 H        -2.093446         1.601209        -1.149839
 H        -4.759214         0.742610        -0.203829
 H        -4.567775         2.276603        -1.276324
 H        -2.969554        -0.251078        -3.298203
 H        -3.050224         1.490334        -3.420271
