19
Iteration:  1776
 C         1.546221        -0.521325         0.541804
 C         0.314449         0.070296         0.180754
 C        -0.901801         0.178151        -0.082057
 C        -2.419882         0.132623        -0.114907
 O        -3.113919         0.335490         1.140880
 C        -3.131694         0.954684        -1.117116
 C        -4.732938         0.622969        -1.184043
 O        -4.632524         0.698126        -2.691462
 C        -3.216755         0.537470        -2.646983
 H         1.734064        -1.457127        -0.067421
 H         2.385181         0.201408         0.353497
 H         1.624032        -0.855871         1.592705
 H        -2.634411        -0.822077        -0.384237
 H        -2.430985         0.525147         1.844629
 H        -3.006373         2.051415        -1.007192
 H        -4.871724        -0.413376        -0.997507
 H        -5.509672         1.312693        -0.788800
 H        -2.935893        -0.566691        -2.722875
 H        -2.622859         0.969441        -3.477049
