19
Iteration:  3548
 C         1.515041        -0.333151         0.711176
 C         0.175834        -0.144787         0.307298
 C        -0.919835         0.195350        -0.095863
 C        -2.313968        -0.070691        -0.330911
 O        -3.040051        -0.300514         0.842397
 C        -3.015495         1.000694        -1.178616
 C        -4.529418         1.212276        -1.096565
 O        -4.796823         0.646121        -2.402080
 C        -3.369970         0.707825        -2.706343
 H         1.770265         0.234302         1.667902
 H         1.672259        -1.400623         1.043949
 H         2.192848         0.355922         0.006231
 H        -2.321906        -1.068786        -1.034085
 H        -2.885679         0.394625         1.495689
 H        -2.332306         1.857293        -1.074682
 H        -4.956279         0.711203        -0.273854
 H        -4.704002         2.350016        -1.136670
 H        -2.988344        -0.234885        -3.229419
 H        -3.288008         1.604872        -3.364783
