19
Iteration:  1732
 C         1.389168        -0.549238         0.695155
 C         0.185585         0.150671         0.254642
 C        -0.917732         0.521754        -0.169114
 C        -2.282795         0.082737        -0.213973
 O        -2.867129         0.040803         1.134567
 C        -3.133123         0.891560        -1.226736
 C        -4.657289         0.879011        -1.185108
 O        -4.725701         0.695625        -2.617607
 C        -3.331517         0.370303        -2.699062
 H         1.699101        -1.469730         0.094775
 H         2.142019         0.235482         0.924354
 H         1.235606        -1.100274         1.644794
 H        -2.149029        -1.006209        -0.489172
 H        -2.233187         0.435179         1.808835
 H        -2.907425         2.000852        -1.282509
 H        -5.002947         0.026862        -0.602044
 H        -5.050245         1.896518        -0.942282
 H        -3.081650        -0.774406        -2.883637
 H        -2.912822         0.986094        -3.549910
