19
Iteration:  1395
 C         1.377105        -0.396197        -0.285066
 C        -0.008767         0.009587        -0.070213
 C        -1.256036        -0.068142         0.017855
 C        -2.748686        -0.009250         0.249283
 O        -3.038057         0.158819         1.637263
 C        -3.618366         0.864514        -0.755398
 C        -4.493683         0.133160        -1.833890
 O        -3.833594         0.870314        -2.926734
 C        -2.894245         1.413403        -1.997612
 H         1.928171         0.005618        -1.092294
 H         1.935983        -0.200021         0.672072
 H         1.309952        -1.477473        -0.427479
 H        -3.031194        -1.133639         0.043833
 H        -2.155018         0.121694         2.051433
 H        -4.328651         1.434320        -0.085817
 H        -4.464925        -0.963206        -1.887898
 H        -5.552445         0.195971        -1.892128
 H        -1.924000         0.830640        -2.073209
 H        -2.761403         2.533416        -2.098748
