19
Iteration:  1541charge 0 multiplicity 1
 C         1.430704         0.337621         0.018513
 C        -0.051888        -0.049185        -0.038821
 C        -1.164946        -0.481490         0.115629
 C        -2.703305        -0.365466         0.051438
 O        -3.305492        -0.183877         1.328210
 C        -3.001364         0.887017        -0.909902
 C        -4.410437         1.330498        -1.325982
 O        -4.276126         0.770394        -2.704493
 C        -2.897515         0.500671        -2.423790
 H         1.804499         0.540784        -1.040633
 H         1.431208         1.184693         0.623251
 H         2.109981        -0.449143         0.363347
 H        -3.326481        -1.164965        -0.518297
 H        -2.726398         0.457261         1.750233
 H        -2.348026         1.685275        -0.516978
 H        -5.242958         0.837761        -0.791598
 H        -4.578084         2.434981        -1.481218
 H        -2.715323        -0.605276        -2.612622
 H        -2.238688         0.918485        -3.119623
