19
Iteration:  4643
 C         1.474379         0.197517        -0.135333
 C         0.005374        -0.042131        -0.044318
 C        -1.194378        -0.363741        -0.022783
 C        -2.702163        -0.386095        -0.016318
 O        -3.242011        -0.497058         1.310604
 C        -3.281273         0.775355        -0.765652
 C        -4.683714         0.727585        -1.460318
 O        -4.044593         1.281661        -2.723938
 C        -2.729865         1.207583        -2.058314
 H         2.090440        -0.684768         0.240057
 H         1.735580         0.227094        -1.245327
 H         1.886196         1.025375         0.354997
 H        -2.962158        -1.258721        -0.519128
 H        -3.136265        -1.429269         1.584844
 H        -3.527437         1.566533        -0.014647
 H        -5.154399        -0.268115        -1.689949
 H        -5.486362         1.361240        -0.968857
 H        -2.060044         0.442898        -2.475334
 H        -2.170254         2.232747        -2.140383
