19
Iteration:  3773
 C         1.418016        -0.123978        -0.284274
 C        -0.011491        -0.112840         0.029848
 C        -1.247673         0.098950         0.189891
 C        -2.602213        -0.217661         0.123451
 O        -3.331459        -0.148854         1.415771
 C        -3.301269         0.811894        -0.843882
 C        -4.612533         0.699088        -1.472210
 O        -4.075489         1.077085        -2.789532
 C        -2.651723         0.848027        -2.267985
 H         1.466294         0.443058        -1.140242
 H         1.993134         0.216210         0.572671
 H         1.652512        -1.215919        -0.194874
 H        -2.660348        -1.211696        -0.424087
 H        -2.643874        -0.314784         2.119663
 H        -3.047201         1.805526        -0.393491
 H        -5.062341        -0.243563        -1.588371
 H        -5.385085         1.293050        -1.061983
 H        -2.408470        -0.149961        -2.699399
 H        -2.003497         1.654928        -2.428127
