19
Iteration:  3217charge 0 multiplicity 1
 C         1.342563        -0.062290        -0.570260
 C        -0.077915        -0.230278        -0.185706
 C        -1.244880        -0.163992         0.230571
 C        -2.785544        -0.135541         0.260569
 O        -3.376808        -0.009380         1.585805
 C        -3.437267         0.954807        -0.720743
 C        -4.546501         0.620744        -1.657554
 O        -3.731852         0.680119        -2.812068
 C        -2.610549         1.162116        -2.058248
 H         1.690169        -0.726423        -1.321878
 H         1.688308         0.872922        -1.046052
 H         1.895669        -0.327975         0.331936
 H        -3.006902        -1.132837        -0.145994
 H        -2.721632         0.174171         2.287212
 H        -3.588391         1.834430        -0.081310
 H        -5.149202        -0.304338        -1.556401
 H        -5.317162         1.424193        -1.614953
 H        -1.663990         0.640502        -2.133553
 H        -2.475551         2.216350        -2.198810
