19
Iteration:  1263
 C         1.202696        -0.505657        -0.429872
 C        -0.240167        -0.393058        -0.283036
 C        -1.521902        -0.351881        -0.215901
 C        -2.869258        -0.061737         0.364049
 O        -2.875570         0.980815         1.406996
 C        -3.908675         0.463950        -0.668520
 C        -3.838515        -0.215098        -2.037335
 O        -3.356540         1.014354        -2.704067
 C        -3.315110         1.656838        -1.422830
 H         1.713120         0.395924        -0.727058
 H         1.542584        -0.946051         0.561002
 H         1.465298        -1.279877        -1.134768
 H        -3.123911        -1.051975         0.807723
 H        -2.001442         1.401457         1.262107
 H        -4.888120         0.583911        -0.144859
 H        -2.870270        -0.887510        -2.095347
 H        -4.749471        -0.662614        -2.565859
 H        -2.299822         2.007172        -1.120662
 H        -3.875279         2.583670        -1.292585
