19
Iteration:  4585charge 0 multiplicity 1
 C         1.402069         0.079489        -0.402937
 C        -0.022983        -0.088082        -0.062146
 C        -1.220984        -0.278804         0.164416
 C        -2.652778        -0.242689         0.083591
 O        -3.426822        -0.691206         1.170963
 C        -3.279296         1.058946        -0.606968
 C        -4.586834         0.650950        -1.481780
 O        -3.862088         0.966454        -2.732361
 C        -2.739052         1.440184        -1.974646
 H         1.794255        -0.893065        -0.545235
 H         1.529650         0.707486        -1.246049
 H         1.922698         0.658688         0.431608
 H        -2.847636        -0.974171        -0.598985
 H        -3.069900        -0.149827         1.916526
 H        -3.476056         1.703015         0.153079
 H        -4.744615        -0.455261        -1.476065
 H        -5.554304         1.200544        -1.363533
 H        -1.806660         0.853362        -2.281362
 H        -2.635923         2.644670        -2.165556
