19
Iteration:   167
 C         1.471495        -0.342350         0.161458
 C         0.046018        -0.254932         0.084865
 C        -1.165398        -0.107989         0.051810
 C        -2.511200        -0.004200         0.092473
 O        -2.889014         0.671539         1.450152
 C        -3.371615         0.834070        -0.916218
 C        -4.569692         0.097656        -1.577901
 O        -4.375085         0.674833        -2.922857
 C        -3.075456         1.191833        -2.384550
 H         2.121430         0.629835         0.235942
 H         1.667846        -0.983886         1.004057
 H         1.732761        -0.813654        -0.799343
 H        -2.869616        -1.029835         0.072940
 H        -2.078425         0.914513         1.867730
 H        -3.714193         1.588726        -0.253722
 H        -4.508080        -0.981671        -1.674967
 H        -5.501931         0.290070        -1.210473
 H        -2.177491         0.779558        -2.735541
 H        -3.049131         2.269124        -2.616373
