19
Iteration:  4439charge 0 multiplicity 1
 C         1.625186         0.010403         0.062942
 C         0.087241        -0.165612         0.015422
 C        -1.158990        -0.265889        -0.134065
 C        -2.595969        -0.322636        -0.171896
 O        -3.207554        -0.461768         1.210907
 C        -3.334510         0.958414        -0.699341
 C        -4.699364         0.741884        -1.398788
 O        -4.130110         0.924344        -2.700049
 C        -2.965772         1.470465        -2.113418
 H         1.984442         0.081434        -0.993751
 H         1.851214         0.985678         0.568487
 H         2.128822        -0.738239         0.662264
 H        -2.896082        -1.270896        -0.803320
 H        -3.217677        -1.383313         1.493061
 H        -3.214868         1.717974         0.020416
 H        -5.166593        -0.150421        -1.209477
 H        -5.380533         1.536500        -1.145532
 H        -2.102111         1.262275        -2.777373
 H        -2.788560         2.580309        -2.246513
