19
Iteration:  4872charge 0 multiplicity 1
 C         1.511087        -0.194233         0.597034
 C         0.075386        -0.056223         0.211987
 C        -1.054362        -0.123508        -0.203083
 C        -2.473197        -0.133119        -0.453482
 O        -3.024475        -0.730340         0.778857
 C        -3.063749         1.212689        -0.965564
 C        -4.585704         1.103942        -0.993850
 O        -4.599932         0.770687        -2.398750
 C        -3.145639         1.154289        -2.560342
 H         1.947245         0.709317         1.132733
 H         1.607046        -1.103163         1.303480
 H         2.101393        -0.462939        -0.222177
 H        -2.724919        -0.888903        -1.152601
 H        -2.325294        -0.562453         1.453638
 H        -2.680313         2.133107        -0.681922
 H        -5.116384         0.459794        -0.250985
 H        -5.207330         2.014807        -0.798140
 H        -2.473815         0.469872        -3.047395
 H        -3.024304         2.157397        -2.949019
