19
Iteration:   480
 C         1.475620        -0.051266         0.437506
 C         0.116648        -0.099966        -0.025572
 C        -1.081634        -0.241419         0.003919
 C        -2.479555        -0.073186        -0.034414
 O        -2.968566         0.463104         1.220914
 C        -3.112190         0.799418        -1.091033
 C        -4.663433         0.738586        -1.279463
 O        -4.565906         0.637241        -2.670076
 C        -3.078235         0.528347        -2.570474
 H         2.163083        -0.770949         0.003679
 H         1.932186         1.037369         0.264884
 H         1.443845        -0.271258         1.527763
 H        -2.906693        -1.117903        -0.061190
 H        -2.569962         1.354931         1.427376
 H        -2.741053         1.834505        -0.964005
 H        -5.073233        -0.180172        -0.834007
 H        -5.269951         1.645010        -0.980916
 H        -2.750714        -0.511689        -2.861225
 H        -2.519806         1.326752        -3.154184
