19
Iteration:  3951charge 0 multiplicity 1
 C         1.377016        -0.176807        -0.293142
 C        -0.037342        -0.153509        -0.139890
 C        -1.274260        -0.266366        -0.022849
 C        -2.700133        -0.191665         0.179900
 O        -3.218734         0.003644         1.520745
 C        -3.378113         0.962843        -0.736386
 C        -4.610619         0.486424        -1.639802
 O        -3.857154         0.824056        -2.845653
 C        -2.757390         1.384835        -2.014347
 H         1.795313        -1.163908        -0.586627
 H         1.583495         0.669735        -0.964928
 H         1.919850        -0.171573         0.777452
 H        -3.123880        -1.075215        -0.225882
 H        -2.514168        -0.230621         2.169198
 H        -3.805238         1.584905         0.016336
 H        -4.786771        -0.668416        -1.657354
 H        -5.575926         1.019096        -1.434101
 H        -1.818291         0.996554        -2.271523
 H        -2.596044         2.408291        -2.151872
