19
Iteration:    61
 C         1.521069        -0.466977         0.426914
 C         0.178210         0.023506         0.084775
 C        -0.996758         0.251500        -0.184296
 C        -2.518458        -0.043230        -0.005019
 O        -2.824535         0.361649         1.403346
 C        -3.427721         0.865051        -0.953338
 C        -4.763852         0.346268        -1.474561
 O        -4.467091         0.737074        -2.826763
 C        -3.100489         0.866709        -2.462581
 H         1.911182        -0.272419         1.491464
 H         1.464920        -1.535414         0.143776
 H         2.280383        -0.138654        -0.297601
 H        -2.770816        -1.139756        -0.106095
 H        -2.319340         1.163948         1.463892
 H        -3.542702         1.922366        -0.577761
 H        -4.923566        -0.779991        -1.395242
 H        -5.779907         0.708511        -1.110924
 H        -2.607860        -0.153545        -2.699184
 H        -2.460664         1.709852        -2.850646
