19
Iteration:  4823charge 0 multiplicity 1
 C         1.655299        -0.102060         0.562346
 C         0.258141        -0.040250         0.126127
 C        -0.958296        -0.154487        -0.104767
 C        -2.468729        -0.284378        -0.381755
 O        -3.241213        -0.714951         0.780205
 C        -3.097652         1.005359        -0.923784
 C        -4.625957         1.157306        -1.026471
 O        -4.596851         0.973622        -2.486284
 C        -3.193369         1.065138        -2.495279
 H         1.712188         0.547807         1.400712
 H         2.029489        -1.060684         0.801631
 H         2.341945         0.289103        -0.286961
 H        -2.534199        -1.193328        -0.987432
 H        -3.208539         0.030892         1.401127
 H        -2.542239         1.998116        -0.662953
 H        -5.324021         0.474848        -0.452740
 H        -4.973528         2.032002        -0.631822
 H        -2.702344         0.139525        -2.941867
 H        -2.945697         1.982937        -2.958250
