19
Iteration:  4503
 C         1.380506        -0.068355        -0.251101
 C        -0.017098         0.046733        -0.126873
 C        -1.203944        -0.109457        -0.012487
 C        -2.691473        -0.136777        -0.017198
 O        -3.341427        -0.804326         1.185461
 C        -3.353543         1.160468        -0.596221
 C        -4.631894         0.707673        -1.475848
 O        -3.796818         0.761742        -2.684938
 C        -2.777502         1.447114        -1.929754
 H         1.779380        -0.720606        -1.108024
 H         1.828758         0.928510        -0.582867
 H         1.782330        -0.492070         0.620206
 H        -2.865731        -0.800998        -0.822797
 H        -2.827202        -0.517573         1.989851
 H        -3.642017         1.921037         0.138303
 H        -5.151796        -0.344544        -1.000418
 H        -5.417483         1.473750        -1.562919
 H        -1.748264         1.154281        -2.186145
 H        -2.693306         2.645722        -2.106354
