19
Iteration:  3474charge 0 multiplicity 1
 C         1.590691        -0.111666         0.634626
 C         0.213819        -0.130035         0.049655
 C        -1.024070        -0.060535        -0.107061
 C        -2.521495        -0.291461        -0.219723
 O        -3.147050        -0.025617         1.011412
 C        -3.059154         0.852654        -1.112976
 C        -4.541681         1.145732        -1.099012
 O        -4.630489         0.806083        -2.538350
 C        -3.178607         0.696018        -2.654942
 H         1.526284        -0.213371         1.657595
 H         2.108000        -1.001644         0.280001
 H         2.036918         0.919569         0.530157
 H        -2.706226        -1.212774        -0.730737
 H        -2.782996        -0.681441         1.672259
 H        -2.369046         1.784784        -0.951872
 H        -5.067686         0.379768        -0.479135
 H        -4.875652         2.135469        -0.724098
 H        -3.061866        -0.295956        -3.148065
 H        -2.843769         1.649407        -3.100332
