19
Iteration:  3688
 C         1.476385        -0.025820         0.330871
 C         0.058095        -0.265265         0.023185
 C        -1.168388        -0.234923        -0.119628
 C        -2.578910        -0.233536        -0.139898
 O        -3.176964        -0.024000         1.128718
 C        -3.015481         0.947039        -0.905390
 C        -4.573540         0.948549        -1.207977
 O        -4.424019         0.770206        -2.664429
 C        -2.985265         0.903649        -2.428033
 H         1.887685         1.046601         0.105801
 H         1.687535        -0.095652         1.420957
 H         2.213239        -0.442529        -0.236449
 H        -2.918842        -1.112932        -0.564567
 H        -2.812926        -0.687715         1.751957
 H        -2.594225         1.875605        -0.609343
 H        -5.088394         0.139235        -0.604914
 H        -4.922871         1.971688        -1.015712
 H        -2.487911         0.070362        -3.017706
 H        -2.624959         1.969994        -2.830483
