19
Iteration:  2568
 C         1.383089        -0.120205        -0.383640
 C        -0.037046        -0.157425        -0.122570
 C        -1.195226         0.056876         0.226584
 C        -2.639320        -0.129546         0.109368
 O        -3.436601         0.015801         1.305391
 C        -3.253757         0.946978        -0.734761
 C        -4.502430         0.496644        -1.396035
 O        -3.916200         0.605783        -2.738204
 C        -2.767265         1.257465        -2.140258
 H         1.685482        -1.054964        -0.763224
 H         1.665892         0.614355        -1.114391
 H         1.884815        -0.170155         0.624133
 H        -2.920448        -1.085906        -0.339842
 H        -3.254678        -0.761488         1.900616
 H        -3.223219         1.866880        -0.191390
 H        -4.829447        -0.562648        -1.141214
 H        -5.397297         1.147556        -1.342100
 H        -1.872859         0.653898        -2.641461
 H        -2.660031         2.358283        -2.291189
