19
Iteration:  2691charge 0 multiplicity 1
 C         1.503145        -0.121268         0.057461
 C         0.052565        -0.209697        -0.135286
 C        -1.145390        -0.287179        -0.013097
 C        -2.598327        -0.105196        -0.017022
 O        -3.242992        -0.099138         1.284724
 C        -3.217121         1.023052        -0.827574
 C        -4.622885         0.547466        -1.313641
 O        -4.166252         0.705158        -2.770962
 C        -2.920267         1.315597        -2.230620
 H         1.963318        -0.738928         0.821797
 H         1.946945        -0.460079        -0.933233
 H         1.799862         0.912484         0.452443
 H        -3.051328        -1.093517        -0.503272
 H        -3.044555         0.833473         1.625075
 H        -3.178618         1.970565        -0.244017
 H        -4.981389        -0.482148        -0.996115
 H        -5.451993         1.252956        -1.076687
 H        -1.960018         0.942375        -2.814608
 H        -2.826829         2.356042        -2.325021
