19
Iteration:  2092charge 0 multiplicity 1
 C         1.364942        -0.151361         0.069508
 C        -0.060060        -0.068841        -0.168901
 C        -1.269779        -0.075323        -0.169599
 C        -2.694928        -0.035009         0.245784
 O        -2.836848         0.441455         1.616652
 C        -3.347398         0.886564        -0.904728
 C        -4.726994         0.659185        -1.558627
 O        -4.133886         0.705199        -2.880959
 C        -2.832801         0.477255        -2.318839
 H         1.483779        -0.259965         1.222117
 H         1.823686        -0.996217        -0.347503
 H         1.800201         0.793799        -0.249018
 H        -3.067073        -1.189439         0.206636
 H        -1.943472         0.244925         2.021348
 H        -3.183915         1.942995        -0.605533
 H        -5.323911        -0.125108        -1.289691
 H        -5.455109         1.463797        -1.519137
 H        -2.441317        -0.571463        -2.376525
 H        -2.065193         1.212421        -2.698977
