19
Iteration:  3454charge 0 multiplicity 1
 C         1.477880        -0.027664         0.526783
 C         0.108799        -0.150624         0.000705
 C        -1.064154        -0.202034        -0.166850
 C        -2.457183        -0.203840        -0.158987
 O        -3.084185        -0.049490         1.219418
 C        -3.018964         0.881496        -1.084233
 C        -4.549634         1.066014        -1.163591
 O        -4.576502         0.890619        -2.616617
 C        -3.100103         0.685342        -2.613663
 H         1.394161        -0.333866         1.641426
 H         2.080585        -0.801993         0.075634
 H         1.625855         1.022293         0.480640
 H        -2.738902        -1.349880        -0.519581
 H        -3.006702        -0.937249         1.575544
 H        -2.649533         1.895873        -0.684268
 H        -5.202680         0.342222        -0.561080
 H        -4.870751         2.119599        -1.110078
 H        -2.885527        -0.349536        -2.925078
 H        -2.649969         1.513257        -3.234577
