19
Iteration:  1765
 C         1.485221        -0.583867         0.578025
 C         0.205050         0.152083         0.160745
 C        -0.942087         0.305718        -0.052495
 C        -2.337178         0.075795        -0.157216
 O        -3.016396         0.267221         1.112962
 C        -3.192129         0.971007        -1.166838
 C        -4.624525         0.652117        -1.237434
 O        -4.658192         0.727233        -2.653168
 C        -3.239429         0.449855        -2.604513
 H         1.767994        -1.450353        -0.100865
 H         2.396071         0.088684         0.515774
 H         1.343833        -0.796588         1.646697
 H        -2.416033        -0.891078        -0.425143
 H        -2.406703         0.571845         1.816713
 H        -2.840822         2.008395        -1.029499
 H        -4.931046        -0.286952        -0.815529
 H        -5.306536         1.353914        -0.705689
 H        -3.016548        -0.677365        -2.628959
 H        -2.775898         1.076035        -3.411124
