19
Iteration:   992
 C         1.090664        -0.274712        -0.268219
 C        -0.322815        -0.426532        -0.243399
 C        -1.519724        -0.284805        -0.347142
 C        -2.798457        -0.110300         0.228300
 O        -2.552316         0.833269         1.405971
 C        -3.858677         0.594792        -0.640580
 C        -4.121668        -0.187894        -1.934446
 O        -3.282905         0.780397        -2.745034
 C        -3.278568         1.719815        -1.500039
 H         1.632612         0.584945         0.353622
 H         1.555483        -1.181867         0.011208
 H         1.417874        -0.075353        -1.309422
 H        -3.163536        -1.019031         0.685962
 H        -3.280256         0.588366         2.067218
 H        -4.738692         0.858114         0.019466
 H        -3.641212        -1.157572        -2.088239
 H        -5.176199        -0.321052        -2.399844
 H        -2.249851         2.088484        -1.266142
 H        -3.950475         2.627366        -1.713613
