19
Iteration:  4041
 C         1.532600        -0.385373         0.033069
 C         0.147439         0.033381        -0.053911
 C        -1.101962        -0.051578         0.022985
 C        -2.529429        -0.065404        -0.061026
 O        -3.250620        -0.272154         1.193285
 C        -3.347733         1.124999        -0.724988
 C        -4.725376         0.653693        -1.376219
 O        -4.139703         0.739567        -2.729607
 C        -2.945216         1.281717        -2.201130
 H         1.471394        -1.251964         0.758173
 H         1.899323        -0.457584        -1.007578
 H         2.112575         0.338267         0.684051
 H        -2.890168        -0.937233        -0.829916
 H        -2.787466        -1.039953         1.524114
 H        -3.452310         1.970785        -0.126778
 H        -4.798503        -0.464117        -1.271621
 H        -5.543830         1.393517        -1.271847
 H        -2.082964         0.770663        -2.542469
 H        -2.758025         2.263085        -2.527524
