19
Iteration:  1300charge 0 multiplicity 1
 C         1.141360        -0.399748        -0.215541
 C        -0.282722        -0.328894        -0.172958
 C        -1.436116        -0.305219        -0.191344
 C        -2.809802        -0.090207         0.232220
 O        -2.618454         0.780178         1.417938
 C        -3.769477         0.492305        -0.692121
 C        -4.196912        -0.092657        -2.050355
 O        -3.427255         0.925149        -2.793948
 C        -3.284130         1.700724        -1.573358
 H         1.728397         0.616842        -0.542853
 H         1.470454        -0.483468         0.791887
 H         1.545611        -1.294811        -0.825049
 H        -3.299471        -1.001277         0.648439
 H        -1.844849         0.350407         1.897207
 H        -4.568047         0.956848        -0.022433
 H        -3.731369        -1.100154        -2.193737
 H        -5.285944        -0.294601        -2.259538
 H        -2.238777         1.999363        -1.560412
 H        -4.072045         2.432471        -1.488104
