19
Iteration:   153charge 0 multiplicity 1
 C         1.530149        -0.381158         0.247017
 C         0.116384        -0.387737         0.063132
 C        -1.072778        -0.019619        -0.060652
 C        -2.585022         0.076836         0.177309
 O        -2.943077         0.634454         1.401820
 C        -3.382602         0.832901        -0.963381
 C        -4.549365         0.047014        -1.546971
 O        -4.443976         0.697144        -2.868607
 C        -3.096207         1.251131        -2.441980
 H         1.777663         0.592508         0.501820
 H         1.944578        -1.055933         1.154641
 H         2.134873        -0.661761        -0.645525
 H        -2.986824        -0.951222         0.235940
 H        -2.120668         1.013381         1.821720
 H        -3.616376         1.818953        -0.557625
 H        -4.254726        -1.019854        -1.541227
 H        -5.561457         0.056824        -1.078869
 H        -2.328985         0.717164        -3.095047
 H        -3.038634         2.324328        -2.553084
