19
Iteration:  3895
 C         1.373467        -0.034279        -0.437377
 C        -0.104139        -0.179415        -0.180515
 C        -1.342760        -0.336393         0.032950
 C        -2.835872        -0.239073         0.273524
 O        -3.167309         0.087958         1.631027
 C        -3.463530         0.909629        -0.749726
 C        -4.588814         0.473826        -1.712315
 O        -3.739571         0.963997        -2.851291
 C        -2.616676         1.177317        -1.977504
 H         1.530484        -0.618553        -1.376108
 H         1.624188         1.050856        -0.593822
 H         1.973401        -0.338746         0.660555
 H        -3.379579        -1.053826        -0.061165
 H        -2.662077        -0.616994         2.097866
 H        -3.858949         1.672624        -0.016286
 H        -4.717382        -0.686193        -1.813747
 H        -5.539034         1.041443        -1.682004
 H        -1.918654         0.435185        -2.270514
 H        -2.303555         2.190076        -1.928862
