19
Iteration:  2887
 C         1.287853         0.430742         0.695480
 C         0.143329        -0.344855         0.129889
 C        -0.985614        -0.571107        -0.292371
 C        -2.482050        -0.440128        -0.288929
 O        -3.015284        -0.112088         1.003515
 C        -2.885081         0.696447        -1.192522
 C        -4.349388         1.189196        -0.974411
 O        -4.672330         1.227720        -2.439153
 C        -3.343845         0.594857        -2.683401
 H         0.938596         1.305751         1.145249
 H         1.897081        -0.108838         1.485561
 H         2.046235         0.501499        -0.180747
 H        -2.990178        -1.377186        -0.632802
 H        -2.443176        -0.576431         1.634719
 H        -2.157303         1.454032        -1.071050
 H        -5.075261         0.374280        -0.607477
 H        -4.446233         2.127985        -0.435855
 H        -3.402548        -0.388153        -3.200742
 H        -2.706983         1.331512        -3.426451
