19
Iteration:  3914
 C         1.238056        -0.106838        -0.356255
 C        -0.213594        -0.147192        -0.212662
 C        -1.347985        -0.264061         0.046833
 C        -2.730213        -0.231684         0.203406
 O        -3.120169         0.066791         1.574341
 C        -3.402516         0.818156        -0.699608
 C        -4.525089         0.488648        -1.690743
 O        -3.795521         0.908135        -2.856114
 C        -2.626913         1.291039        -1.989576
 H         1.562975        -0.706387        -1.140890
 H         1.675295         0.841579        -0.629013
 H         1.618332        -0.121129         0.622669
 H        -3.102190        -1.305157        -0.076749
 H        -2.534827        -0.424716         2.214405
 H        -3.458358         1.779445        -0.016573
 H        -4.797124        -0.619799        -1.922112
 H        -5.489860         0.988636        -1.486198
 H        -1.761904         0.607653        -2.037539
 H        -2.467015         2.347403        -2.159622
