19
Iteration:  1348charge 0 multiplicity 1
 C         1.296168        -0.331144        -0.115252
 C        -0.153047        -0.444213        -0.246371
 C        -1.299778        -0.220572        -0.126833
 C        -2.708143        -0.082401         0.136487
 O        -2.876898         0.497668         1.470632
 C        -3.656716         0.811238        -0.702083
 C        -4.336900        -0.000866        -1.823063
 O        -3.671527         0.775327        -2.844926
 C        -3.123599         1.746645        -1.792437
 H         1.580959         0.574772        -0.723998
 H         1.649985        -0.043828         0.964433
 H         1.884593        -1.139699        -0.559885
 H        -3.130995        -1.165866         0.145350
 H        -2.358659         0.041329         2.123594
 H        -4.343960         1.294057        -0.029314
 H        -4.228236        -1.048239        -1.893228
 H        -5.416743        -0.000907        -1.867296
 H        -2.030195         1.838647        -1.799967
 H        -3.737383         2.707500        -1.868920
