19
Iteration:  4995charge 0 multiplicity 1
 C         1.525366        -0.202620         0.324896
 C         0.093908        -0.082514         0.192775
 C        -1.062131         0.005097        -0.191848
 C        -2.545816        -0.274074        -0.259965
 O        -3.014914        -0.424892         1.094587
 C        -3.251296         0.897901        -0.836601
 C        -4.737337         0.750222        -1.281078
 O        -4.394450         1.084398        -2.647942
 C        -3.014631         1.243395        -2.353972
 H         2.093919         0.262686        -0.506568
 H         2.015328         0.143585         1.282104
 H         1.812134        -1.281428         0.208192
 H        -2.722406        -1.156082        -0.867364
 H        -2.701934        -1.209439         1.601670
 H        -3.095373         1.746059        -0.198702
 H        -5.281294        -0.368137        -0.975243
 H        -5.343811         1.616414        -0.853063
 H        -2.365810         0.598345        -2.948167
 H        -2.673234         2.211314        -2.552766
