19
Iteration:  1335charge 0 multiplicity 1
 C         1.369231        -0.317806        -0.119635
 C        -0.098080        -0.441944        -0.275859
 C        -1.334764        -0.399739        -0.212299
 C        -2.780675        -0.045766         0.195823
 O        -2.832324         0.614550         1.513629
 C        -3.749377         0.751786        -0.695511
 C        -4.344139        -0.017463        -1.892239
 O        -3.592478         0.814235        -2.834083
 C        -3.211138         1.724103        -1.757347
 H         1.737944         0.689327        -0.643490
 H         1.549118        -0.247438         0.993300
 H         2.024808        -1.172690        -0.473995
 H        -3.368572        -1.008946         0.289466
 H        -2.300607        -0.034134         2.069028
 H        -4.432972         1.192487         0.029772
 H        -3.892973        -0.971591        -1.853846
 H        -5.425942         0.061320        -2.129316
 H        -2.197618         2.097648        -1.780858
 H        -3.797003         2.666115        -1.821038
