19
Iteration:  4073
 C         1.523614        -0.273980         0.153370
 C         0.110409        -0.175108         0.107199
 C        -1.091890         0.104176        -0.059923
 C        -2.518700        -0.134683        -0.167096
 O        -3.242410        -0.371550         1.082081
 C        -3.266842         1.054053        -0.835929
 C        -4.674984         0.821402        -1.226600
 O        -4.245183         0.732064        -2.613479
 C        -2.950675         1.259762        -2.353990
 H         1.822414        -0.947548         0.973744
 H         1.938783        -0.672272        -0.778386
 H         1.884787         0.792555         0.388651
 H        -2.696941        -1.036200        -0.982015
 H        -2.594626        -0.959448         1.566753
 H        -2.997879         1.912368        -0.225048
 H        -5.373254        -0.061772        -0.901543
 H        -5.472701         1.539674        -1.039311
 H        -2.212320         0.645316        -2.858312
 H        -2.783089         2.304758        -2.574926
