19
Iteration:   643
 C         1.464829         0.084594         0.644186
 C         0.093767        -0.153354         0.287165
 C        -0.989240        -0.200214        -0.219648
 C        -2.496027        -0.118388        -0.256332
 O        -3.011031         0.130335         1.059185
 C        -2.943975         1.039514        -1.281693
 C        -4.504441         1.191007        -1.158489
 O        -4.721496         0.340676        -2.381168
 C        -3.223878         0.507623        -2.697777
 H         1.992434        -0.565087         1.346180
 H         2.054428         0.239423        -0.247128
 H         1.437344         1.062387         1.143809
 H        -3.052154        -0.945456        -0.594601
 H        -2.317243        -0.210054         1.610373
 H        -2.214414         1.911773        -1.254034
 H        -5.032552         0.835287        -0.258641
 H        -4.863161         2.204165        -1.407742
 H        -2.753002        -0.415582        -3.016418
 H        -3.067145         1.279128        -3.506043
