19
Iteration:  1220
 C         1.011929        -0.679581        -0.767119
 C        -0.351149        -0.514976        -0.376711
 C        -1.409983        -0.172217         0.264077
 C        -2.861879        -0.016873         0.577854
 O        -3.008586         1.036451         1.581483
 C        -3.704854         0.362598        -0.722885
 C        -3.405320        -0.254830        -2.177053
 O        -3.327898         1.115575        -2.799828
 C        -3.514697         1.648318        -1.471558
 H         1.415378         0.356510        -0.922975
 H         1.633247        -1.210681         0.037651
 H         0.990755        -1.279781        -1.674305
 H        -3.191686        -0.889919         1.107597
 H        -2.895196         1.953585         1.203376
 H        -4.688700         0.317711        -0.191612
 H        -2.437807        -0.831896        -2.128798
 H        -4.284429        -0.734998        -2.681133
 H        -2.655008         2.287993        -1.152990
 H        -4.355454         2.318200        -1.535677
