19
Iteration:  1250charge 0 multiplicity 1
 C         1.140519        -0.565629        -0.498327
 C        -0.294074        -0.453484        -0.394674
 C        -1.503976        -0.299296        -0.057979
 C        -2.847989        -0.023649         0.374026
 O        -2.940840         0.995910         1.412632
 C        -3.766115         0.432004        -0.687539
 C        -3.669453        -0.279730        -2.071746
 O        -3.366528         1.048329        -2.679148
 C        -3.375968         1.706971        -1.370081
 H         1.539596         0.365645        -0.668137
 H         1.691852        -0.882890         0.450490
 H         1.338413        -1.241373        -1.297609
 H        -3.363233        -0.893840         0.879814
 H        -2.325492         1.738228         1.302704
 H        -4.757008         0.517304        -0.291585
 H        -2.917798        -1.188859        -2.150523
 H        -4.654128        -0.636843        -2.449927
 H        -2.353131         2.016769        -1.091823
 H        -4.163707         2.478694        -1.465298
