19
Iteration:  3441
 C         1.456517         0.015093         0.474143
 C         0.100788        -0.163274         0.033021
 C        -1.086479        -0.321224        -0.165109
 C        -2.596422        -0.206629        -0.138722
 O        -2.996801        -0.059916         1.242662
 C        -3.092123         0.976394        -1.018412
 C        -4.600925         1.086887        -1.210247
 O        -4.497846         0.894723        -2.675579
 C        -3.060898         0.660848        -2.551862
 H         1.540538        -0.296035         1.460807
 H         2.245743        -0.434842        -0.111374
 H         1.901224         1.029315         0.417250
 H        -3.134469        -1.101420        -0.630454
 H        -3.049551        -0.943153         1.676466
 H        -2.427575         1.915605        -0.847478
 H        -5.074831         0.163614        -0.773531
 H        -5.098747         1.961077        -0.773609
 H        -2.746943        -0.369659        -2.908427
 H        -2.403454         1.303666        -3.188945
