19
Iteration:  4389
 C         1.484644        -0.016499         0.322749
 C         0.069697        -0.135461        -0.014303
 C        -1.094321        -0.097582        -0.154194
 C        -2.528866        -0.335936        -0.249010
 O        -3.122912        -0.455548         1.061444
 C        -3.181362         0.917872        -0.863336
 C        -4.710569         0.693432        -1.222781
 O        -4.377927         1.205542        -2.569905
 C        -2.914379         1.173426        -2.286797
 H         1.983075         0.484953        -0.473494
 H         1.631932         0.606470         1.190573
 H         1.828604        -1.136684         0.431533
 H        -2.761134        -1.155887        -0.779669
 H        -2.633162        -1.234040         1.448230
 H        -2.885961         1.794294        -0.173313
 H        -4.952748        -0.479190        -1.114291
 H        -5.508583         1.364920        -0.699010
 H        -2.410319         0.419378        -2.963542
 H        -2.493734         2.109017        -2.652167
