19
Iteration:  4350charge 0 multiplicity 1
 C         1.622771        -0.032402         0.455039
 C         0.189676        -0.023085         0.132567
 C        -1.033736        -0.191323        -0.088341
 C        -2.496507        -0.357767        -0.249604
 O        -3.064108        -0.621381         1.021886
 C        -3.166516         0.900647        -0.936326
 C        -4.767930         0.838606        -1.211233
 O        -4.541263         1.401739        -2.566878
 C        -3.129152         1.010553        -2.497779
 H         2.228941         0.658246        -0.226798
 H         1.909463         0.038706         1.535293
 H         2.078587        -0.929980         0.265774
 H        -2.583710        -1.336131        -0.961688
 H        -2.582241        -0.183631         1.722242
 H        -2.829162         1.834688        -0.564518
 H        -5.145085        -0.172230        -1.218802
 H        -5.529910         1.440087        -0.762692
 H        -2.921432        -0.066979        -2.894287
 H        -2.285480         1.652216        -2.957705
