19
Iteration:  3858charge 0 multiplicity 1
 C         1.224938        -0.020590        -0.464929
 C        -0.159265        -0.261084        -0.068176
 C        -1.323531        -0.205285         0.170957
 C        -2.734241        -0.217377         0.210220
 O        -3.213238         0.108723         1.510860
 C        -3.321872         0.757017        -0.783840
 C        -4.565506         0.426365        -1.624469
 O        -3.823307         1.054834        -2.801509
 C        -2.574988         1.147935        -2.045627
 H         1.430144        -0.211580        -1.504528
 H         1.428632         1.052074        -0.323260
 H         2.059828        -0.596019        -0.006913
 H        -2.991009        -1.266253        -0.042311
 H        -3.017264        -0.492497         2.220315
 H        -3.476530         1.782159        -0.303677
 H        -4.774347        -0.631213        -2.077171
 H        -5.500100         0.886486        -1.205728
 H        -1.767971         0.428175        -2.219057
 H        -2.060218         2.076498        -2.133516
