19
Iteration:   757charge 0 multiplicity 1
 C         1.391670         0.218544        -0.312814
 C         0.057649        -0.073394         0.129700
 C        -1.187050        -0.271793         0.185583
 C        -2.692667        -0.196919         0.178851
 O        -3.353820         0.035271         1.408851
 C        -3.132731         0.908406        -0.873577
 C        -4.557957         1.027780        -1.482510
 O        -4.177182         0.677695        -2.806242
 C        -2.721911         0.529493        -2.281752
 H         2.087525         0.089370         0.461603
 H         1.538616        -0.503889        -1.168952
 H         1.546286         1.260695        -0.628025
 H        -3.019312        -1.217850        -0.197238
 H        -2.894973        -0.347150         2.169170
 H        -2.722438         1.857083        -0.660221
 H        -5.177752         0.205604        -1.046014
 H        -5.113415         2.004625        -1.382841
 H        -2.358210        -0.510639        -2.515518
 H        -1.992782         1.203962        -2.713060
