19
Iteration:  2303charge 0 multiplicity 1
 C         1.618348        -0.086902         0.606230
 C         0.226024         0.005499         0.320679
 C        -0.929024        -0.148223        -0.022457
 C        -2.434525        -0.123366        -0.269881
 O        -3.066981        -0.148831         1.066553
 C        -3.057745         1.009386        -1.197338
 C        -4.637898         1.224268        -1.225877
 O        -4.741156         0.793011        -2.579168
 C        -3.286761         0.421953        -2.657830
 H         2.201341         0.814356         0.341441
 H         1.800138        -0.471196         1.671330
 H         2.079489        -0.899045        -0.071012
 H        -2.765291        -1.087596        -0.712481
 H        -2.457449        -0.688875         1.649152
 H        -2.538777         1.983838        -1.175323
 H        -5.301535         0.831104        -0.414005
 H        -4.978363         2.291189        -1.175062
 H        -3.095633        -0.648687        -2.714462
 H        -2.719666         1.096075        -3.371395
