19
Iteration:  4412
 C         1.559650         0.005414         0.230020
 C         0.091952        -0.130940        -0.048826
 C        -1.139128        -0.296819        -0.107880
 C        -2.565239        -0.310484        -0.136361
 O        -3.109195        -0.470185         1.138991
 C        -3.256887         0.983893        -0.771121
 C        -4.650882         0.687175        -1.312528
 O        -4.332938         1.073226        -2.703486
 C        -2.946499         1.375286        -2.237640
 H         2.087012         0.327420        -0.669516
 H         1.732403         0.809862         0.950423
 H         1.931442        -0.999581         0.567623
 H        -2.853499        -1.075228        -0.724243
 H        -3.151743        -1.390660         1.393348
 H        -3.174856         1.880687        -0.055197
 H        -5.096776        -0.394593        -1.099609
 H        -5.325161         1.463999        -0.911426
 H        -2.297220         0.718339        -2.824708
 H        -2.605649         2.403952        -2.515439
