19
Iteration:  4334
 C         1.587088        -0.022340         0.463944
 C         0.196020        -0.031385         0.191684
 C        -0.994095        -0.229204         0.012808
 C        -2.418526        -0.293993        -0.272152
 O        -3.007855        -0.688108         1.028922
 C        -3.197109         0.835301        -1.021895
 C        -4.692570         0.899674        -1.219682
 O        -4.571089         1.442818        -2.558923
 C        -3.193009         0.940484        -2.587692
 H         2.090162         0.792608         0.023469
 H         1.669845         0.039056         1.537455
 H         2.133520        -1.001523         0.025220
 H        -2.630293        -1.180777        -0.847628
 H        -2.891257         0.061874         1.642428
 H        -2.878828         1.887549        -0.560960
 H        -5.257106        -0.074480        -1.182322
 H        -5.149269         1.584097        -0.436979
 H        -3.273637         0.014621        -3.025780
 H        -2.717166         1.775468        -3.031478
