19
Iteration:  2783charge 0 multiplicity 1
 C         1.523508        -0.090659         0.273417
 C         0.102300         0.042491         0.112348
 C        -1.098026         0.129447         0.065468
 C        -2.478884        -0.224751        -0.098571
 O        -3.189182        -0.512752         1.083571
 C        -3.104181         0.861885        -0.988195
 C        -4.593909         0.995073        -1.183894
 O        -4.419783         1.183495        -2.608196
 C        -3.109111         0.590174        -2.560028
 H         2.016346         0.081931         1.299907
 H         1.811060        -1.012103        -0.143105
 H         1.876936         0.718701        -0.291614
 H        -2.393906        -1.236269        -0.676104
 H        -2.659478        -0.415427         1.861429
 H        -2.751837         1.949971        -0.807924
 H        -5.240699         0.177019        -0.841265
 H        -5.102707         2.011855        -0.906328
 H        -3.128135        -0.548534        -2.807094
 H        -2.305721         1.059925        -3.267664
