19
Iteration:  3484charge 0 multiplicity 1
 C         1.876236        -0.278615         0.174028
 C         0.435190        -0.359815        -0.001862
 C        -0.719840        -0.487169        -0.292456
 C        -2.093779        -0.375868        -0.349719
 C        -2.484768         0.851592        -1.227950
 O        -2.730702        -0.142778         0.996751
 C        -3.588020        -1.014274         1.684811
 C        -3.842551        -0.384825         3.030022
 O        -3.925771        -2.157939         1.327196
 H         2.410968        -1.016559        -0.595355
 H         2.213350         0.783571        -0.252254
 H         2.367742        -0.301800         1.184534
 H        -2.630439        -1.181122        -0.921264
 H        -3.501219         1.009563        -1.407579
 H        -1.902765         1.779235        -0.851610
 H        -1.951149         0.693502        -2.225086
 H        -4.680320         0.312191         3.007367
 H        -4.031422        -1.205675         3.753585
 H        -2.897475         0.172694         3.250098
