19
Iteration:  4282charge 0 multiplicity 1
 C         1.660436        -1.085202        -0.101033
 C         0.194860        -0.846836        -0.103912
 C        -0.982637        -0.442261        -0.161287
 C        -2.356421         0.026827        -0.263420
 C        -2.494860         1.437051        -0.940850
 O        -2.999109         0.166549         1.006953
 C        -3.187410        -0.947826         1.704009
 C        -4.030630        -0.632809         2.923070
 O        -2.910841        -2.034097         1.311735
 H         2.011054        -2.075755         0.316083
 H         1.890591        -1.031392        -1.163042
 H         2.100837        -0.223080         0.342357
 H        -2.849798        -0.695113        -0.878298
 H        -3.539604         1.648329        -1.374805
 H        -2.055603         2.355213        -0.413250
 H        -1.942875         1.267148        -1.959407
 H        -4.975113        -1.162986         2.752370
 H        -3.523283        -1.060752         3.786035
 H        -4.284601         0.416028         3.144785
