19
Iteration:  4737
 C         2.009312        -0.643353        -0.455914
 C         0.662165        -0.405136        -0.001101
 C        -0.549086        -0.275061        -0.158233
 C        -1.909555        -0.442459        -0.279944
 C        -2.782507         0.603576        -0.916727
 O        -2.384054        -0.488195         1.347274
 C        -3.618380        -0.801617         1.709932
 C        -3.880622        -0.578256         3.150858
 O        -4.479082        -1.226136         0.964014
 H         2.510452         0.306484        -0.775716
 H         2.699928        -0.950901         0.359656
 H         2.140355        -1.319324        -1.310182
 H        -2.224048        -1.409743        -0.574412
 H        -3.723477         0.283222        -1.182606
 H        -2.874398         1.401586        -0.265395
 H        -2.306671         0.975979        -1.862683
 H        -2.997203        -0.951251         3.683767
 H        -3.945152         0.486351         3.474510
 H        -4.759097        -1.206138         3.215171
