19
Iteration:  4692
 C         2.082378        -0.446981        -0.163449
 C         0.647013        -0.371199        -0.468974
 C        -0.570356        -0.477394        -0.281615
 C        -1.964944        -0.575630        -0.133100
 C        -2.734548         0.632828        -0.818073
 O        -2.332935        -0.698811         1.381782
 C        -3.710425        -0.792227         1.714098
 C        -3.687101        -0.607422         3.117706
 O        -4.667008        -1.008399         0.894700
 H         2.568519         0.538449        -0.218560
 H         2.254802        -0.980172         0.812806
 H         2.747142        -0.788821        -0.946494
 H        -2.444487        -1.418956        -0.520410
 H        -3.789154         0.398267        -0.730341
 H        -2.535353         1.531466        -0.310080
 H        -2.533222         0.597020        -1.872085
 H        -2.656082        -0.457229         3.381132
 H        -4.054986         0.450906         3.073859
 H        -4.422208        -1.227074         3.625208
