19
Iteration:   266
 C         1.493911        -0.012225         0.432940
 C         0.155484         0.117068         0.034370
 C        -1.001129        -0.140241        -0.159208
 C        -2.416530        -0.150915        -0.487344
 C        -3.088851         1.180717        -0.973265
 O        -3.263376        -0.352187         0.772440
 C        -2.988722        -1.355258         1.569037
 C        -3.812888        -1.215354         2.855659
 O        -2.198525        -2.234772         1.279865
 H         2.123227         0.415310        -0.539368
 H         1.602991         0.691727         1.256994
 H         1.705699        -1.091159         0.723062
 H        -2.656099        -1.023528        -1.120280
 H        -2.679299         1.996864        -0.402372
 H        -2.917439         1.394145        -2.070356
 H        -4.081169         1.005637        -0.670423
 H        -4.156513        -2.272285         2.900045
 H        -3.152309        -0.706153         3.554157
 H        -4.563530        -0.454858         2.580497
