19
Iteration:  4084
 C         1.248851        -1.135827         0.550269
 C         0.021644        -0.644363        -0.000980
 C        -1.119656        -0.382007        -0.355799
 C        -2.462892         0.117022        -0.516265
 C        -2.491083         1.512782        -0.940464
 O        -3.192616         0.137528         0.863784
 C        -3.113788        -1.066561         1.518787
 C        -3.274584        -0.699052         2.937006
 O        -2.821578        -2.164326         1.151035
 H         1.605407        -2.149655         0.312947
 H         1.953683        -0.406580         0.176318
 H         1.210935        -0.978885         1.590507
 H        -2.847255        -0.690947        -1.178699
 H        -3.502251         2.039341        -0.670576
 H        -1.740657         2.097655        -0.406652
 H        -2.179407         1.608402        -1.991224
 H        -2.994431         0.300061         3.207844
 H        -4.348027        -0.713106         3.193770
 H        -2.733097        -1.441197         3.521697
