19
Iteration:  3616charge 0 multiplicity 1
 C         2.163022        -0.101168         0.214792
 C         0.706420        -0.091453        -0.091876
 C        -0.494417        -0.239244        -0.233677
 C        -1.940038        -0.639288        -0.311381
 C        -2.895051         0.087842        -1.242143
 O        -2.446918        -0.496204         1.165495
 C        -3.666730        -0.857416         1.649670
 C        -3.654263        -0.702219         3.215807
 O        -4.673879        -1.166601         0.929967
 H         2.619372        -0.597049        -0.658225
 H         2.404970         0.945031         0.243431
 H         2.356707        -0.560548         1.162624
 H        -1.900162        -1.809615        -0.487388
 H        -3.868379        -0.294812        -1.019964
 H        -3.048573         1.241601        -1.051179
 H        -2.494244        -0.168834        -2.253333
 H        -4.437242         0.034652         3.474665
 H        -3.784282        -1.714879         3.672334
 H        -2.664803        -0.269550         3.289959
