19
Iteration:  2790charge 0 multiplicity 1
 C         2.047250         0.203611        -0.423245
 C         0.712906        -0.145531         0.000797
 C        -0.422048        -0.439053         0.250791
 C        -1.873906        -0.707012         0.110756
 C        -2.488617         0.300878        -1.056994
 O        -2.528167        -0.344720         1.307190
 C        -3.801561        -0.909308         1.587406
 C        -4.032674        -0.900871         3.005812
 O        -4.547980        -1.332897         0.700992
 H         2.295141         1.171840        -0.731522
 H         2.846279        -0.064119         0.395855
 H         2.307905        -0.555357        -1.283663
 H        -1.957657        -1.825164         0.031671
 H        -3.169339        -0.252666        -1.628405
 H        -2.959732         1.191468        -0.517885
 H        -1.813824         0.811542        -1.837997
 H        -5.011278        -1.182471         3.320288
 H        -3.379187        -1.697457         3.399606
 H        -3.759079         0.091030         3.343850
