19
Iteration:   955charge 0 multiplicity 1
 C         1.953320         0.704292        -0.187545
 C         0.598986         0.268001         0.076148
 C        -0.571111        -0.048083        -0.071240
 C        -1.951819        -0.472656        -0.100222
 C        -2.871704         0.380048        -1.002722
 O        -2.489742        -0.395544         1.347225
 C        -3.511039        -1.251652         1.592505
 C        -4.074072        -1.243696         2.972893
 O        -3.999996        -2.057718         0.758654
 H         2.220001         1.463682         0.596547
 H         2.531014        -0.144212        -0.130517
 H         1.984534         1.109963        -1.315166
 H        -2.103182        -1.605855        -0.227458
 H        -3.415799         1.070985        -0.340549
 H        -2.288994         0.897312        -1.888796
 H        -3.643289        -0.226819        -1.508811
 H        -4.898900        -0.510715         3.127320
 H        -4.194838        -2.302754         3.195060
 H        -3.321860        -0.874975         3.763050
