19
Iteration:  4558charge 0 multiplicity 1
 C         2.108906        -0.285115        -0.225225
 C         0.596316        -0.471314        -0.256855
 C        -0.638040        -0.745536        -0.236658
 C        -2.065371        -0.555885        -0.185008
 C        -2.436576         0.609547        -1.085648
 O        -2.481669        -0.368199         1.234536
 C        -3.666529        -0.740584         1.754351
 C        -3.681784        -0.845015         3.209649
 O        -4.699598        -1.029552         1.059049
 H         2.274217         0.533987         0.567862
 H         2.637996        -1.246219         0.100930
 H         2.410800         0.215745        -1.158591
 H        -2.653000        -1.454248        -0.462353
 H        -3.540532         0.800347        -1.164217
 H        -1.814436         1.479234        -0.694290
 H        -2.063151         0.522245        -2.067781
 H        -2.679134        -1.114588         3.605693
 H        -3.921630         0.181756         3.573599
 H        -4.483819        -1.469275         3.627221
