19
Iteration:  4524charge 0 multiplicity 1
 C         2.029380        -0.555220        -0.306932
 C         0.598234        -0.441726        -0.094377
 C        -0.572828        -0.299080        -0.077548
 C        -2.007717        -0.399191        -0.187023
 C        -2.682303         0.535336        -1.147339
 O        -2.397085        -0.453724         1.322329
 C        -3.645250        -0.799742         1.702443
 C        -3.742753        -0.792658         3.188030
 O        -4.572386        -1.089921         0.947001
 H         2.611249         0.031978         0.536490
 H         2.548879        -1.571753        -0.473489
 H         2.262937        -0.030539        -1.274562
 H        -2.058747        -1.485098        -0.575080
 H        -3.745887         0.609112        -0.953595
 H        -2.380518         1.562545        -0.767251
 H        -2.439211         0.371475        -2.149912
 H        -2.818806        -1.126816         3.696470
 H        -3.710960         0.305550         3.398889
 H        -4.601767        -1.257459         3.651953
