19
Iteration:  3471charge 0 multiplicity 1
 C         1.929597        -0.308044         0.076228
 C         0.467956        -0.299628         0.027886
 C        -0.724273        -0.519975        -0.105539
 C        -2.263758        -0.334238        -0.361957
 C        -2.431456         0.879477        -1.216642
 O        -2.791475        -0.127811         0.928832
 C        -3.492051        -1.033306         1.645364
 C        -3.874757        -0.412927         2.966580
 O        -3.832261        -2.128358         1.358952
 H         2.264412        -1.260133        -0.436749
 H         2.419928         0.572199        -0.340842
 H         2.176783        -0.577791         1.118842
 H        -2.631779        -1.333545        -0.693904
 H        -3.561427         0.899830        -1.300678
 H        -2.137160         1.788410        -0.691872
 H        -2.057714         0.714156        -2.268566
 H        -4.755240         0.264887         2.841212
 H        -4.132409        -1.185228         3.684920
 H        -3.050827         0.213417         3.424832
