19
Iteration:  2124charge 0 multiplicity 1
 C         1.693881        -0.409884         0.269128
 C         0.253477        -0.269846         0.096863
 C        -0.961210        -0.319509        -0.178366
 C        -2.342707        -0.137492        -0.330778
 C        -2.847286         1.072947        -1.161758
 O        -2.851854         0.061276         1.060619
 C        -3.163246        -1.148982         1.626379
 C        -4.048342        -0.834567         2.740215
 O        -2.848866        -2.276137         1.185164
 H         2.237304         0.606233         0.487568
 H         2.039533        -1.143307         1.063356
 H         2.081671        -0.788951        -0.596319
 H        -2.675856        -1.170564        -0.711697
 H        -2.340429         1.907766        -0.602047
 H        -2.511496         0.961257        -2.162779
 H        -3.959539         1.233003        -1.038764
 H        -3.549243        -0.952304         3.693564
 H        -4.112303         0.267645         2.771782
 H        -5.092305        -1.257554         2.744578
