19
Iteration:   124
 C         1.699247         0.417086         0.301484
 C         0.356506         0.185735         0.081777
 C        -0.841609         0.167212        -0.119635
 C        -2.271979        -0.109102        -0.214956
 C        -3.060466         0.932158        -1.230523
 O        -2.975954        -0.209848         0.962777
 C        -3.188775        -1.455091         1.546085
 C        -3.679741        -1.433498         2.972008
 O        -3.107393        -2.561389         1.058666
 H         2.205791        -0.449574         0.377943
 H         2.193999         1.033133        -0.460259
 H         1.859875         0.926173         1.327460
 H        -2.297829        -1.060859        -0.764557
 H        -2.674529         1.979265        -1.275715
 H        -2.750033         0.426024        -2.291269
 H        -4.159460         1.072305        -1.058696
 H        -4.549704        -2.100943         2.981264
 H        -2.914722        -1.821973         3.650880
 H        -3.829887        -0.467683         3.451576
