19
Iteration:  4996charge 0 multiplicity 1
 C         1.719601        -1.159411        -0.119376
 C         0.243906        -0.770549        -0.053612
 C        -0.853497        -0.264692        -0.146397
 C        -2.301996         0.000505        -0.307011
 C        -2.716557         1.360606        -1.000191
 O        -2.760177         0.194201         1.089143
 C        -3.253606        -0.927664         1.690238
 C        -3.926656        -0.695897         3.054562
 O        -3.211976        -2.060327         1.119554
 H         1.926772        -1.509827        -1.143890
 H         2.120815        -0.099470        -0.008638
 H         2.052767        -1.849038         0.642713
 H        -2.985722        -0.767677        -0.587887
 H        -3.677415         1.793906        -0.616611
 H        -1.822025         1.969493        -0.680827
 H        -2.728443         1.328824        -2.216087
 H        -4.960925        -0.347499         2.938626
 H        -3.970368        -1.607484         3.667080
 H        -3.421695         0.099241         3.569816
