19
Iteration:  3557charge 0 multiplicity 1
 C         1.850272        -0.074199         0.343693
 C         0.464308        -0.315683        -0.069796
 C        -0.655516        -0.618676        -0.457844
 C        -2.108576        -0.646144        -0.227651
 C        -2.828799         0.426701        -1.111834
 O        -2.429608        -0.232101         1.149270
 C        -3.464896        -0.825844         1.636514
 C        -3.642025        -0.537104         3.120387
 O        -4.169150        -1.558297         0.870385
 H         2.657177        -0.502757        -0.210538
 H         1.984679         0.981385         0.302316
 H         2.015986        -0.381320         1.387466
 H        -2.793538        -1.431956        -0.520561
 H        -3.989241         0.501210        -1.195470
 H        -2.280616         1.339973        -0.900180
 H        -2.493559         0.203019        -2.182315
 H        -4.473358         0.174460         3.271414
 H        -3.828936        -1.425461         3.725504
 H        -2.702324        -0.055233         3.513992
