19
Iteration:  3159charge 0 multiplicity 1
 C         1.527490        -0.871081         0.452130
 C         0.225477        -0.526872         0.004780
 C        -0.947656        -0.343768        -0.256358
 C        -2.405998        -0.058536        -0.452135
 C        -2.690888         1.271610        -1.064442
 O        -3.176901        -0.027007         0.747187
 C        -3.123503        -1.041388         1.597194
 C        -4.058969        -0.564276         2.739434
 O        -2.476560        -2.121873         1.542897
 H         1.582364        -1.419411         1.349246
 H         1.980916        -1.461792        -0.366569
 H         2.153816         0.096110         0.608657
 H        -2.668485        -0.912425        -1.052694
 H        -3.617461         1.331503        -1.513423
 H        -2.357023         2.097655        -0.494283
 H        -2.010552         1.300115        -1.942030
 H        -3.666056         0.412698         3.101057
 H        -5.007818        -0.511286         2.225921
 H        -4.324068        -1.280841         3.519667
