19
Iteration:  1370charge 0 multiplicity 1
 C         1.622850        -0.390318         0.304875
 C         0.222391        -0.066371         0.121468
 C        -0.935632        -0.103751        -0.260746
 C        -2.390063        -0.073711        -0.453379
 C        -3.059900         1.168594        -1.198729
 O        -2.987046        -0.034505         0.950073
 C        -3.093233        -1.306125         1.640667
 C        -4.008971        -1.092955         2.871908
 O        -2.468158        -2.259983         1.294393
 H         2.265430         0.137813        -0.296479
 H         1.975105        -0.117097         1.415111
 H         1.787191        -1.531916         0.176701
 H        -2.710987        -1.067731        -0.827659
 H        -3.218950         2.026549        -0.463676
 H        -2.514440         1.528643        -2.015119
 H        -4.039757         0.840543        -1.629200
 H        -4.579421        -2.017093         3.120716
 H        -3.356415        -0.830900         3.729383
 H        -4.681138        -0.218668         2.884799
