19
Iteration:  4522
 C         2.021508        -0.570551        -0.299398
 C         0.609095        -0.434330        -0.095592
 C        -0.557132        -0.287956        -0.074463
 C        -2.017323        -0.382972        -0.179299
 C        -2.703516         0.535708        -1.130122
 O        -2.397009        -0.446858         1.334440
 C        -3.624783        -0.807324         1.712086
 C        -3.742780        -0.783496         3.170127
 O        -4.576496        -1.095636         0.931904
 H         2.647124        -0.037986         0.503616
 H         2.531914        -1.523611        -0.525030
 H         2.263780        -0.092985        -1.290948
 H        -2.030141        -1.496870        -0.585407
 H        -3.723840         0.538196        -0.930399
 H        -2.456475         1.504504        -0.774772
 H        -2.458814         0.336660        -2.161711
 H        -2.839968        -1.150014         3.653741
 H        -3.708716         0.307050         3.307719
 H        -4.592646        -1.248752         3.629679
