19
Iteration:  1513
 C         1.817240         0.325008         0.055814
 C         0.467743        -0.248287        -0.047917
 C        -0.763164        -0.251016        -0.035853
 C        -2.221764        -0.270062        -0.170134
 C        -2.727061         0.907396        -1.063433
 O        -2.794410        -0.219073         1.123388
 C        -3.394003        -1.300098         1.636728
 C        -3.869117        -0.876370         2.929416
 O        -3.553545        -2.366229         0.977329
 H         1.855662         1.298323         0.434538
 H         2.586042        -0.347776         0.591046
 H         2.291894         0.304094        -0.975560
 H        -2.602960        -1.190627        -0.703825
 H        -2.506759         1.848477        -0.587120
 H        -2.205503         0.877847        -2.041011
 H        -3.748733         1.012238        -1.309051
 H        -2.972186        -0.375653         3.362850
 H        -4.667598        -0.126255         2.745150
 H        -4.281529        -1.736147         3.540039
