19
Iteration:  1781charge 0 multiplicity 1
 C         1.892959         0.631152        -0.194506
 C         0.633517        -0.029460        -0.191124
 C        -0.529724        -0.355828         0.004412
 C        -1.930280        -0.696612         0.050019
 C        -2.626043         0.243918        -1.010894
 O        -2.446480        -0.532365         1.399145
 C        -3.667000        -1.035321         1.600286
 C        -3.972383        -0.954079         3.031229
 O        -4.322638        -1.573209         0.685474
 H         2.873654         0.110323        -0.342963
 H         1.786489         1.383403        -0.922532
 H         2.054002         1.186123         0.780252
 H        -2.007785        -1.751618        -0.324650
 H        -2.391037         1.293099        -0.618853
 H        -2.054620         0.199590        -1.895061
 H        -3.675131         0.040096        -1.166601
 H        -3.666183        -1.905650         3.422536
 H        -3.323632        -0.213072         3.451931
 H        -5.015015        -0.639554         3.109623
