19
Iteration:  4261
 C         1.517486        -1.256897        -0.052226
 C         0.145557        -0.698300        -0.059066
 C        -0.953048        -0.237664        -0.161915
 C        -2.317822         0.127684        -0.354527
 C        -2.526516         1.430379        -1.112926
 O        -2.969130         0.215637         1.049785
 C        -3.211931        -1.065440         1.665623
 C        -4.039470        -0.706773         2.970392
 O        -2.751500        -2.101415         1.356228
 H         1.394320        -2.272990         0.384934
 H         1.967626        -1.278862        -1.035431
 H         2.044945        -0.697469         0.654394
 H        -2.689739        -0.693771        -0.899468
 H        -3.628373         1.709373        -1.022227
 H        -1.998504         2.304157        -0.584665
 H        -2.342783         1.375664        -2.251333
 H        -5.125044        -0.862626         2.878357
 H        -3.621553        -1.245240         3.829928
 H        -3.921298         0.387275         3.133341
