19
Iteration:  3399charge 0 multiplicity 1
 C         1.818606        -0.736068        -0.116340
 C         0.398558        -0.500599         0.056727
 C        -0.757238        -0.221080         0.088866
 C        -2.155301        -0.119537        -0.217572
 C        -2.555621         0.866870        -1.391269
 O        -3.003912         0.213966         1.001510
 C        -3.327431        -0.947994         1.741902
 C        -4.313849        -0.676849         2.903697
 O        -3.087125        -2.070658         1.372406
 H         2.160271        -1.718668        -0.328315
 H         2.185871         0.006298        -0.843483
 H         2.129329        -0.774143         0.896130
 H        -2.402487        -1.144882        -0.616665
 H        -3.564855         0.621778        -1.605437
 H        -2.416029         2.001533        -1.229988
 H        -1.997783         0.438488        -2.252524
 H        -5.128250        -0.072939         2.552473
 H        -4.789256        -1.640122         3.080537
 H        -4.097832        -0.308542         3.911040
