19
Iteration:  3435
 C         1.874095        -0.535859        -0.076268
 C         0.463362        -0.459324         0.045470
 C        -0.755698        -0.322166         0.035649
 C        -2.166472        -0.274494        -0.182707
 C        -2.484298         0.823971        -1.200498
 O        -2.997914         0.061966         0.948638
 C        -3.541636        -1.015319         1.607100
 C        -4.068482        -0.429298         2.977016
 O        -3.364345        -2.139799         1.264630
 H         2.183463        -1.399348        -0.563455
 H         2.412141         0.260325        -0.440385
 H         2.226834        -0.430191         0.943340
 H        -2.635891        -1.165615        -0.594035
 H        -3.630654         0.669171        -1.546502
 H        -2.289310         1.845367        -0.960819
 H        -1.901926         0.661429        -2.104171
 H        -4.915217         0.265618         2.802786
 H        -4.370828        -1.350051         3.509971
 H        -3.234319         0.099425         3.401774
