19
Iteration:  1388charge 0 multiplicity 1
 C         1.714248        -0.384230         0.248040
 C         0.267155         0.001887         0.226947
 C        -0.874645        -0.072874        -0.209353
 C        -2.354458        -0.121853        -0.403272
 C        -3.077953         1.023259        -1.060762
 O        -3.066419        -0.095456         0.883857
 C        -3.071805        -1.221764         1.607480
 C        -3.966680        -1.036462         2.874717
 O        -2.633604        -2.240970         1.220967
 H         2.382082         0.329056        -0.422620
 H         2.284306        -0.395153         1.162411
 H         1.756239        -1.306414        -0.207824
 H        -2.612587        -1.018190        -0.939120
 H        -2.987276         1.921427        -0.461545
 H        -2.584422         1.390118        -1.980252
 H        -4.135267         0.771165        -1.291565
 H        -4.234701        -2.079833         3.129099
 H        -3.536530        -0.375896         3.674519
 H        -4.836813        -0.447228         2.576878
