19
Iteration:  4118charge 0 multiplicity 1
 C         1.121894        -1.369043         0.607006
 C         0.102050        -0.573866        -0.097675
 C        -1.082964        -0.308177        -0.387621
 C        -2.481022         0.109670        -0.575494
 C        -2.657108         1.567467        -1.036148
 O        -3.153073         0.164198         0.891164
 C        -2.971180        -0.994702         1.638518
 C        -3.428578        -0.768566         3.073385
 O        -2.584017        -2.061636         1.087022
 H         1.124353        -2.486687         0.479956
 H         2.077827        -0.904227         0.388974
 H         1.023663        -1.145029         1.633872
 H        -3.193561        -0.662312        -1.046901
 H        -3.625346         1.815908        -1.582934
 H        -2.345468         2.138245        -0.190602
 H        -1.924110         1.725881        -1.887360
 H        -3.539058         0.307389         3.297735
 H        -4.324077        -1.416143         3.112486
 H        -2.800326        -1.294069         3.781653
