19
Iteration:  3389charge 0 multiplicity 1
 C         1.777329        -0.837460        -0.063094
 C         0.406831        -0.441145         0.014899
 C        -0.795394        -0.224944         0.066799
 C        -2.212087        -0.054748        -0.235073
 C        -2.589436         0.831182        -1.338176
 O        -2.953263         0.155773         0.992766
 C        -3.325085        -0.877596         1.710427
 C        -4.414897        -0.714276         2.857976
 O        -2.953162        -2.024884         1.418884
 H         1.822894        -1.772727        -0.497331
 H         2.311003        -0.176325        -0.737346
 H         2.357143        -0.552758         0.812443
 H        -2.367012        -1.137790        -0.342259
 H        -3.689419         0.774249        -1.610056
 H        -2.222881         1.907063        -1.109996
 H        -2.006528         0.564822        -2.234345
 H        -5.185166        -0.029517         2.549176
 H        -4.758921        -1.756670         2.931059
 H        -4.008834        -0.408281         3.826093
