19
Iteration:  3893charge 0 multiplicity 1
 C         2.044627        -0.570919        -0.210122
 C         0.642622        -0.226811        -0.166155
 C        -0.595566        -0.197550        -0.192520
 C        -2.026225        -0.319305        -0.077999
 C        -2.805257         0.737266        -0.808007
 O        -2.457579        -0.238081         1.340470
 C        -3.587521        -1.015019         1.603895
 C        -4.140963        -0.622141         3.009242
 O        -3.996726        -1.761768         0.803663
 H         2.330363        -1.300431        -0.889304
 H         2.708184         0.299289        -0.246146
 H         2.170986        -0.988813         0.789640
 H        -2.478489        -1.187691        -0.609759
 H        -3.825472         0.743219        -0.324820
 H        -2.392975         1.762487        -0.559142
 H        -2.845994         0.594579        -1.950420
 H        -4.728472        -1.485007         3.350113
 H        -3.318931        -0.394327         3.705497
 H        -4.826238         0.198678         2.845383
