19
Iteration:  4394
 C         1.943456        -0.655724        -0.476388
 C         0.550271        -0.635633        -0.138105
 C        -0.673832        -0.562064        -0.103644
 C        -2.148818        -0.215773        -0.175934
 C        -2.434534         1.107617        -0.822571
 O        -2.774314         0.058720         1.190452
 C        -3.545046        -0.996789         1.660426
 C        -4.032398        -0.502623         3.022125
 O        -3.889116        -1.999652         1.175701
 H         2.615195        -0.922822         0.347588
 H         2.292090        -1.355491        -1.224112
 H         2.323404         0.291777        -0.730380
 H        -2.571933        -1.013969        -0.648892
 H        -3.492127         1.254614        -0.572672
 H        -1.633576         1.814051        -0.341533
 H        -2.337141         1.176752        -1.927519
 H        -4.113495        -1.373555         3.712623
 H        -3.491658         0.363615         3.451513
 H        -4.996181         0.009240         2.813183
