19
Iteration:  3126charge 0 multiplicity 1
 C         1.642495        -0.885010         0.485104
 C         0.354881        -0.435272        -0.043460
 C        -0.821186        -0.115173        -0.274558
 C        -2.289713        -0.090934        -0.518133
 C        -2.844932         1.172771        -1.278731
 O        -2.987675         0.098311         0.840115
 C        -3.224716        -1.064919         1.645023
 C        -4.045331        -0.692996         2.900177
 O        -2.852715        -2.201752         1.494962
 H         1.528371        -1.312730         1.437680
 H         2.148364        -1.641219        -0.166923
 H         2.405510        -0.003296         0.356765
 H        -2.714236        -1.084741        -0.773810
 H        -3.848493         1.242485        -1.559613
 H        -2.529734         2.026429        -0.692982
 H        -2.118386         1.147356        -2.138462
 H        -3.649892         0.163867         3.544656
 H        -4.955002        -0.267287         2.470038
 H        -4.159621        -1.611241         3.497345
