19
Iteration:  2971
 C         1.978753        -0.017231         0.103336
 C         0.547467        -0.232199        -0.006097
 C        -0.626805        -0.544523        -0.111687
 C        -2.081928        -0.522510        -0.307457
 C        -2.482457         0.679944        -1.088022
 O        -2.585943        -0.274257         1.084701
 C        -3.677837        -0.986176         1.606792
 C        -3.796498        -0.653999         3.084981
 O        -4.291573        -1.796224         0.944385
 H         2.093310         0.599570         0.917452
 H         2.532073        -0.962411         0.254922
 H         2.416218         0.718046        -0.650053
 H        -2.647827        -1.429796        -0.576016
 H        -3.492122         0.596297        -1.475364
 H        -2.219848         1.577700        -0.450567
 H        -1.774258         0.687898        -1.937932
 H        -2.842760        -1.053225         3.437294
 H        -3.785945         0.449501         3.310026
 H        -4.688230        -1.079073         3.635705
