19
Iteration:  3704
 C         2.005583         0.313250        -0.350730
 C         0.729191        -0.360498        -0.087442
 C        -0.450516        -0.587549         0.001177
 C        -1.923470        -0.846068         0.047270
 C        -2.550931         0.055709        -1.072692
 O        -2.383261        -0.532943         1.423622
 C        -3.727745        -0.687794         1.604718
 C        -4.060848        -0.825761         3.056480
 O        -4.521310        -0.865901         0.759145
 H         2.412757        -0.049444        -1.292464
 H         1.952791         1.398120        -0.397289
 H         2.848710         0.020693         0.219147
 H        -2.073383        -1.995552         0.005597
 H        -3.707479        -0.240235        -1.131304
 H        -2.577377         1.167363        -0.760540
 H        -2.212636        -0.115567        -2.102795
 H        -5.151554        -0.712789         3.254792
 H        -3.868986        -1.864964         3.365904
 H        -3.516152        -0.275600         3.854776
