19
Iteration:  2648charge 0 multiplicity 1
 C         1.952494        -0.163633         0.135494
 C         0.560002        -0.079096        -0.055004
 C        -0.628935        -0.127203        -0.240076
 C        -2.060528        -0.415057        -0.215174
 C        -2.854948         0.810927        -1.060985
 O        -2.348436        -0.474629         1.200943
 C        -3.574136        -1.141617         1.617717
 C        -4.034428        -0.548149         2.928440
 O        -4.012256        -2.058216         0.987000
 H         2.578544         0.084753        -0.638214
 H         2.261648         0.538239         0.982316
 H         2.175348        -1.249422         0.488218
 H        -2.265232        -1.375216        -0.727223
 H        -2.979168         1.611600        -0.365159
 H        -2.041875         0.997228        -1.762055
 H        -3.768838         0.642378        -1.605206
 H        -3.625032         0.405675         3.129425
 H        -5.065247        -0.349461         2.671943
 H        -3.911260        -1.164979         3.812644
