19
Iteration:  1667charge 0 multiplicity 1
 C         2.113976         0.462595        -0.227569
 C         0.654568         0.181801        -0.135180
 C        -0.549770        -0.089993         0.005313
 C        -1.903986        -0.550933        -0.023351
 C        -2.770611         0.184051        -0.963448
 O        -2.498082        -0.403290         1.376949
 C        -3.627385        -1.114813         1.617144
 C        -4.001030        -1.142125         3.017140
 O        -4.334525        -1.649855         0.704972
 H         2.593791         0.071813         0.619321
 H         2.574479        -0.171735        -1.064406
 H         2.425405         1.561361        -0.311027
 H        -1.984764        -1.670440        -0.181070
 H        -2.811391         1.206504        -0.798294
 H        -2.409108         0.312243        -2.038522
 H        -3.686190        -0.325391        -0.947045
 H        -5.044666        -0.750772         3.232117
 H        -4.159403        -2.228850         3.318931
 H        -3.276615        -0.645336         3.699047
