19
Iteration:  2994
 C         1.930345        -0.177335         0.197375
 C         0.547712        -0.205742        -0.095131
 C        -0.649527        -0.443474        -0.028943
 C        -2.111553        -0.408966        -0.247185
 C        -2.484770         0.742451        -1.239243
 O        -2.731481        -0.162107         1.077827
 C        -3.593884        -1.054237         1.578729
 C        -3.715978        -0.703339         3.053900
 O        -4.178097        -1.907745         1.027266
 H         2.170210         0.235910         1.107766
 H         2.293284        -1.204556         0.115085
 H         2.477938         0.520524        -0.544102
 H        -2.697440        -1.332322        -0.456436
 H        -3.426764         0.586570        -1.676985
 H        -2.372233         1.736887        -0.687043
 H        -1.716067         0.799207        -2.084424
 H        -2.738163        -0.728164         3.591200
 H        -4.063151         0.373071         3.055259
 H        -4.562703        -1.203018         3.581555
