19
Iteration:   850
 C         1.832200         1.040334        -0.233732
 C         0.571155         0.330527        -0.079975
 C        -0.456253        -0.334928         0.007208
 C        -1.841807        -0.609553         0.023349
 C        -2.739075         0.284105        -0.858809
 O        -2.355248        -0.667093         1.379013
 C        -3.591439        -1.303356         1.519215
 C        -4.017120        -1.175825         2.953110
 O        -4.282172        -1.775928         0.663694
 H         1.584968         2.123624        -0.506992
 H         2.419183         1.035799         0.807042
 H         2.388235         0.656850        -0.973144
 H        -1.960522        -1.651153        -0.261652
 H        -2.629183         1.366899        -0.807884
 H        -2.487414         0.085028        -1.841513
 H        -3.766753        -0.063112        -0.710309
 H        -3.571584        -0.578040         3.693435
 H        -5.012548        -0.803885         2.958190
 H        -3.957172        -2.207383         3.313894
