19
Iteration:  4726
 C         2.132345        -0.609944        -0.399934
 C         0.688928        -0.391945        -0.084092
 C        -0.548299        -0.242958        -0.142036
 C        -2.040934        -0.547082        -0.298583
 C        -2.793288         0.635530        -0.934100
 O        -2.330308        -0.578737         1.268207
 C        -3.621462        -0.769268         1.691029
 C        -3.887094        -0.587843         3.208358
 O        -4.516855        -1.164893         1.002416
 H         2.489181         0.405747        -0.617487
 H         2.659460        -1.081569         0.456399
 H         2.178072        -1.293778        -1.244717
 H        -2.067705        -1.459608        -0.810822
 H        -3.758376         0.288262        -1.071844
 H        -2.808665         1.395030        -0.227689
 H        -2.325730         1.050429        -1.853940
 H        -3.111461        -0.905358         3.907543
 H        -4.212015         0.466510         3.412089
 H        -4.762143        -1.127456         3.556122
