19
Iteration:  2819charge 0 multiplicity 1
 C         2.036942         0.215747        -0.431405
 C         0.752863        -0.229284         0.021514
 C        -0.423330        -0.292169         0.205996
 C        -1.818861        -0.639429         0.100001
 C        -2.498700         0.268326        -1.054727
 O        -2.507646        -0.606581         1.346610
 C        -3.853034        -0.934454         1.550947
 C        -3.985785        -0.808075         3.058071
 O        -4.609568        -1.234771         0.658241
 H         2.305004         1.351354        -0.359279
 H         2.820564        -0.138590         0.168745
 H         2.256233        -0.285639        -1.302222
 H        -1.746739        -1.722661        -0.069043
 H        -3.329380        -0.347085        -1.563267
 H        -3.123589         1.070008        -0.644733
 H        -1.764427         0.589223        -1.735364
 H        -4.808218        -1.494036         3.299998
 H        -3.042478        -1.059477         3.624751
 H        -4.335037         0.204106         3.422090
