19
Iteration:  2036charge 0 multiplicity 1
 C         1.823393        -0.277278         0.117404
 C         0.388530         0.094392        -0.032562
 C        -0.853871        -0.113670        -0.031834
 C        -2.219902        -0.365690        -0.266538
 C        -2.591224         0.831284        -1.214900
 O        -2.909436        -0.038201         1.080183
 C        -3.413816        -1.222608         1.642091
 C        -3.908594        -0.798668         3.024739
 O        -3.386677        -2.303930         1.068886
 H         2.387689         0.522112        -0.516243
 H         2.135934        -0.209304         1.203123
 H         2.099690        -1.164888        -0.332952
 H        -2.549164        -1.370833        -0.657259
 H        -2.534414         1.791019        -0.753703
 H        -1.857943         0.874967        -2.064526
 H        -3.648585         0.902520        -1.636460
 H        -4.752530        -1.433557         3.186394
 H        -3.019593        -0.779894         3.706886
 H        -4.318539         0.226504         2.943361
