19
Iteration:   190charge 0 multiplicity 1
 C         1.563403         0.330967         0.307498
 C         0.086649         0.066888         0.243794
 C        -1.051513        -0.174531        -0.096163
 C        -2.471760        -0.204907        -0.464510
 C        -2.925394         1.176133        -1.195983
 O        -3.075677        -0.220121         0.933621
 C        -3.044389        -1.387437         1.589555
 C        -3.639105        -1.309470         2.920206
 O        -2.624009        -2.441449         1.135641
 H         2.008393        -0.355353        -0.433333
 H         1.841629         1.369268         0.112076
 H         1.906078         0.036873         1.378156
 H        -2.705975        -1.181554        -0.912994
 H        -3.041556         1.947777        -0.419546
 H        -2.005863         1.303742        -1.913746
 H        -3.882245         1.115416        -1.728142
 H        -4.418995        -2.101972         2.857882
 H        -2.763352        -1.563450         3.513676
 H        -4.042671        -0.310731         3.104971
