19
Iteration:  3335
 C         1.750242        -0.997246         0.033691
 C         0.367910        -0.496826        -0.105473
 C        -0.817413        -0.156770        -0.042741
 C        -2.239448        -0.082628        -0.403485
 C        -2.721345         1.154913        -1.197810
 O        -3.054442         0.038289         0.888751
 C        -3.196913        -0.970138         1.762540
 C        -4.493335        -0.697283         2.641824
 O        -2.590299        -2.004186         1.752534
 H         1.694300        -2.073749         0.175030
 H         2.514197        -0.735844        -0.695505
 H         2.105146        -0.588989         1.078859
 H        -2.657790        -1.059444        -0.721807
 H        -3.909169         1.216021        -1.147495
 H        -2.461482         2.263710        -0.839039
 H        -2.433380         0.974515        -2.275217
 H        -5.011710         0.088605         2.105335
 H        -5.129165        -1.580527         2.457882
 H        -4.258298        -0.425918         3.679590
