19
Iteration:   791
 C         1.726573         1.088755        -0.167475
 C         0.589437         0.194867        -0.022159
 C        -0.487024        -0.415508        -0.069535
 C        -1.947129        -0.627607        -0.048061
 C        -2.626628         0.447410        -1.084738
 O        -2.429025        -0.565705         1.356933
 C        -3.545174        -1.322783         1.600735
 C        -3.958860        -1.258651         3.015382
 O        -4.247371        -1.841123         0.809552
 H         1.645084         1.920807        -0.991224
 H         1.853640         1.672138         0.685216
 H         2.807628         0.647357        -0.225820
 H        -2.177065        -1.615168        -0.377513
 H        -2.908611         1.327906        -0.528624
 H        -1.840537         0.644911        -1.903978
 H        -3.463230        -0.036241        -1.601169
 H        -3.033821        -1.756080         3.516554
 H        -4.215809        -0.164966         3.315482
 H        -4.964335        -1.763176         3.083065
