19
Iteration:  2543charge 0 multiplicity 1
 C         1.811755        -0.209977         0.150576
 C         0.409667        -0.285876         0.081806
 C        -0.783760        -0.333591        -0.048398
 C        -2.222598        -0.224952        -0.189715
 C        -2.552306         0.899284        -1.328443
 O        -2.891147         0.088582         1.028904
 C        -3.369235        -1.107681         1.662281
 C        -3.837547        -0.944253         3.056592
 O        -3.590980        -2.130374         1.006743
 H         2.135884        -0.965675        -0.697845
 H         2.118127         0.815995         0.029410
 H         2.383898        -0.561150         0.913416
 H        -2.672260        -1.166764        -0.570500
 H        -1.971478         1.737142        -1.127890
 H        -2.172787         0.550094        -2.336208
 H        -3.649652         1.125739        -1.267112
 H        -3.306942        -1.700388         3.627310
 H        -3.773351         0.069945         3.514299
 H        -4.954346        -1.085742         3.050828
