19
Iteration:   528charge 0 multiplicity 1
 C         1.726192         0.561900         0.091902
 C         0.336387        -0.008558         0.022096
 C        -0.875098        -0.243722        -0.040227
 C        -2.299019        -0.265075        -0.373470
 C        -2.720406         0.991202        -1.227171
 O        -3.082628        -0.189175         1.037532
 C        -3.330026        -1.384343         1.638846
 C        -3.843037        -1.285803         3.096553
 O        -3.004139        -2.424881         1.073869
 H         2.379613         0.273744         1.075962
 H         2.295646         0.331477        -0.769096
 H         1.568838         1.583556         0.101217
 H        -2.594743        -1.258890        -0.794805
 H        -2.504133         1.900781        -0.575506
 H        -2.177977         1.224110        -2.117441
 H        -3.773055         0.844604        -1.518635
 H        -3.795617        -0.221651         3.562445
 H        -4.923589        -1.638165         3.328015
 H        -3.120433        -1.960332         3.740347
