19
Iteration:  3804charge 0 multiplicity 1
 C         1.997655         0.105143        -0.570874
 C         0.785536        -0.326736        -0.070852
 C        -0.392519        -0.668002         0.084766
 C        -1.892766        -0.641685         0.071092
 C        -2.435304         0.570883        -0.688132
 O        -2.412371        -0.573139         1.381527
 C        -3.809981        -0.916855         1.574863
 C        -4.133154        -0.462576         2.953493
 O        -4.554234        -1.445893         0.715621
 H         2.127878        -0.409791        -1.469446
 H         2.065557         1.168575        -0.779968
 H         2.877637        -0.135260        -0.073047
 H        -2.205230        -1.668635        -0.265757
 H        -3.534762         0.093295        -0.843857
 H        -2.665867         1.475793        -0.164723
 H        -2.035718         0.637429        -1.723617
 H        -5.221260        -0.585713         3.042895
 H        -3.685852        -1.118890         3.697721
 H        -3.801197         0.583373         3.100843
