19
Iteration:  1402charge 0 multiplicity 1
 C         1.714751        -0.338362         0.158816
 C         0.297972        -0.064850         0.147616
 C        -0.884758         0.047543        -0.060520
 C        -2.295659        -0.139588        -0.322753
 C        -2.991070         0.999926        -1.074263
 O        -3.100157        -0.083698         0.886066
 C        -3.162152        -1.234624         1.572052
 C        -3.914319        -0.997102         2.816790
 O        -2.721033        -2.295962         1.208245
 H         2.187585         0.487723        -0.277991
 H         1.926067        -0.390874         1.307306
 H         2.049971        -1.231224        -0.308608
 H        -2.389060        -1.138133        -0.739770
 H        -2.897915         1.924936        -0.454878
 H        -2.701640         1.023215        -2.017099
 H        -4.071598         0.719196        -0.994696
 H        -3.909084        -1.904975         3.462080
 H        -3.358387        -0.262929         3.451897
 H        -4.953607        -0.764240         2.527473
