19
Iteration:  4306
 C         1.705269        -0.828985        -0.191106
 C         0.252713        -0.856651        -0.209379
 C        -0.939870        -0.646622        -0.151448
 C        -2.280749        -0.100652        -0.310190
 C        -2.321191         1.320729        -0.846158
 O        -2.990926         0.219763         0.997537
 C        -3.400445        -0.879213         1.694517
 C        -4.068944        -0.628547         3.026426
 O        -3.068660        -2.031115         1.290251
 H         2.007118        -1.743913         0.336589
 H         1.901652        -1.047009        -1.262311
 H         2.163996         0.060797         0.089023
 H        -2.977424        -0.758471        -0.804881
 H        -3.310285         1.615045        -1.239409
 H        -1.951169         2.021400         0.067437
 H        -1.604166         1.580696        -1.732251
 H        -4.950087        -1.269576         3.153919
 H        -3.315376        -0.804661         3.826836
 H        -4.466712         0.427112         3.131649
