19
Iteration:  1079
 C         1.775854         0.261766         0.158129
 C         0.327017         0.089459         0.131415
 C        -0.841298        -0.002617        -0.123399
 C        -2.220989        -0.218099        -0.290133
 C        -2.830355         0.850080        -1.165676
 O        -2.799697        -0.182404         1.079757
 C        -3.277244        -1.413294         1.578468
 C        -3.810528        -1.077897         2.934737
 O        -3.376079        -2.465192         1.036459
 H         2.235464        -0.426409         1.012736
 H         2.196252         0.008141        -0.776781
 H         1.897623         1.254136         0.386992
 H        -2.422155        -1.178703        -0.653372
 H        -2.251103         1.770610        -1.274519
 H        -2.975169         0.515865        -2.113945
 H        -3.708643         1.173863        -0.610083
 H        -3.870736        -2.027798         3.566852
 H        -3.094535        -0.374559         3.441242
 H        -4.758479        -0.578698         2.798060
