19
Iteration:  3956charge 0 multiplicity 1
 C         1.822279        -0.725028         0.009572
 C         0.403960        -0.459416         0.015405
 C        -0.763225        -0.229012        -0.215561
 C        -2.194328        -0.075213        -0.271637
 C        -2.596251         1.120044        -1.178508
 O        -2.750888         0.092952         1.146331
 C        -3.432650        -1.022990         1.635842
 C        -3.737933        -0.922370         3.145324
 O        -3.785113        -1.999502         1.007586
 H         2.277798        -1.541074        -0.637786
 H         2.435222         0.209478        -0.141810
 H         2.039432        -1.020313         1.066317
 H        -2.517282        -1.070205        -0.415936
 H        -3.616745         0.925550        -1.562705
 H        -2.560353         1.999844        -0.624048
 H        -2.053392         1.162986        -2.114150
 H        -3.345100        -1.846114         3.617589
 H        -3.374467         0.005685         3.639007
 H        -4.839504        -0.879089         3.342549
