19
Iteration:  2027charge 0 multiplicity 1
 C         1.799658        -0.197130         0.076157
 C         0.369468         0.052583         0.034971
 C        -0.792248        -0.166242         0.001801
 C        -2.240180        -0.311195        -0.238325
 C        -2.611046         0.805656        -1.241878
 O        -2.895076        -0.099994         1.025176
 C        -3.349620        -1.161585         1.636310
 C        -3.914482        -0.808074         3.008456
 O        -3.441754        -2.250522         1.050069
 H         2.415689         0.564967        -0.569568
 H         2.315479        -0.155086         1.083114
 H         1.924333        -1.173779        -0.238052
 H        -2.498854        -1.329672        -0.427518
 H        -2.304833         1.663005        -0.578423
 H        -1.965749         0.681410        -2.068360
 H        -3.683936         0.773669        -1.519730
 H        -4.703412        -1.468112         3.290638
 H        -3.239202        -1.142672         3.788403
 H        -4.111961         0.288577         3.024136
