19
Iteration:  1435charge 0 multiplicity 1
 C         1.774962        -0.186010         0.082989
 C         0.349285        -0.115102        -0.038026
 C        -0.844601         0.068873         0.039886
 C        -2.307103        -0.024006        -0.196230
 C        -2.785849         1.026686        -1.334949
 O        -3.112150        -0.129280         1.028605
 C        -3.250753        -1.287377         1.655989
 C        -3.939569        -1.052928         3.008375
 O        -2.944960        -2.429803         1.154000
 H         2.167507         0.808709         0.041680
 H         1.939575        -0.378855         1.237225
 H         2.356995        -0.857727        -0.483940
 H        -2.472897        -0.947150        -0.735591
 H        -2.412628         2.082081        -1.281681
 H        -2.396616         0.757060        -2.220693
 H        -3.886717         0.936952        -1.454526
 H        -3.476340        -1.756897         3.719526
 H        -3.915236         0.054664         3.092985
 H        -5.036302        -1.261205         2.874005
