19
Iteration:  3612
 C         2.140143        -0.084353         0.245462
 C         0.721957        -0.132984        -0.092523
 C        -0.505246        -0.223763        -0.239476
 C        -1.949696        -0.634707        -0.279631
 C        -2.919321         0.103532        -1.265223
 O        -2.432292        -0.501148         1.135948
 C        -3.669881        -0.855127         1.641897
 C        -3.667257        -0.691026         3.209433
 O        -4.623916        -1.180983         0.948215
 H         2.612343        -0.598236        -0.603415
 H         2.466640         0.954334         0.205785
 H         2.457646        -0.625915         1.162036
 H        -2.146404        -1.718878        -0.581272
 H        -3.928030        -0.289987        -1.068692
 H        -2.980322         1.221388        -1.082564
 H        -2.627016        -0.148332        -2.342871
 H        -4.448554         0.005836         3.529408
 H        -3.789328        -1.686717         3.710354
 H        -2.645639        -0.292867         3.400129
