19
Iteration:  2824charge 0 multiplicity 1
 C         2.033261         0.220311        -0.398212
 C         0.788496        -0.206181         0.006440
 C        -0.414168        -0.270807         0.187354
 C        -1.847401        -0.642437         0.076476
 C        -2.502292         0.260624        -1.068538
 O        -2.477342        -0.635402         1.370652
 C        -3.824235        -0.942054         1.537954
 C        -4.045931        -0.821230         3.050289
 O        -4.608733        -1.213571         0.688340
 H         2.168985         1.243971        -0.381876
 H         2.897885        -0.246495         0.224682
 H         2.240365        -0.264064        -1.457323
 H        -1.948151        -1.736325        -0.176994
 H        -3.305832        -0.309766        -1.437388
 H        -3.144362         1.051448        -0.616192
 H        -1.687879         0.537818        -1.823871
 H        -4.800748        -1.506133         3.461218
 H        -3.084748        -0.857228         3.525977
 H        -4.331379         0.165673         3.362719
