19
Iteration:  3162
 C         1.542173        -0.874837         0.430531
 C         0.200481        -0.529151         0.022577
 C        -0.954445        -0.356584        -0.249282
 C        -2.420919        -0.071029        -0.446998
 C        -2.660091         1.275575        -1.079221
 O        -3.196211        -0.027268         0.744699
 C        -3.098517        -1.049317         1.599340
 C        -4.050257        -0.584658         2.724873
 O        -2.467315        -2.096561         1.549336
 H         1.597125        -1.420398         1.414305
 H         2.021956        -1.457393        -0.340336
 H         2.103601         0.079975         0.663205
 H        -2.686040        -0.941260        -1.132855
 H        -3.755975         1.513275        -1.502584
 H        -2.388880         2.088214        -0.396426
 H        -2.020773         1.325759        -1.930796
 H        -3.722118         0.421447         3.059083
 H        -5.028331        -0.426497         2.161466
 H        -4.282121        -1.264844         3.601556
