19
Iteration:  3649charge 0 multiplicity 1
 C         2.128736        -0.041834        -0.012870
 C         0.632961         0.045263        -0.112252
 C        -0.527059        -0.291973        -0.057015
 C        -1.956017        -0.787175        -0.140303
 C        -2.689552        -0.005283        -1.168248
 O        -2.421221        -0.555258         1.180943
 C        -3.730442        -0.734811         1.601899
 C        -3.754640        -0.791147         3.106356
 O        -4.687425        -1.011564         0.952720
 H         2.540061        -0.460987        -0.963330
 H         2.598633         0.937479        -0.037651
 H         2.524191        -0.568170         0.824129
 H        -1.645811        -1.892754        -0.186447
 H        -3.556498        -0.587706        -1.588085
 H        -2.900756         1.150211        -0.930409
 H        -1.983608        -0.015417        -2.035205
 H        -4.602791        -0.224938         3.567566
 H        -3.807603        -1.876717         3.376631
 H        -2.805481        -0.415787         3.544231
