19
Iteration:  1979charge 0 multiplicity 1
 C         1.996190         0.127191         0.004110
 C         0.552296        -0.366572         0.115453
 C        -0.677303        -0.200244        -0.036126
 C        -2.152269        -0.295047        -0.187085
 C        -2.726457         0.726803        -1.244384
 O        -2.884568        -0.053607         1.030881
 C        -3.513640        -1.132789         1.629664
 C        -3.903808        -0.909445         3.100782
 O        -3.668928        -2.141725         0.997758
 H         2.165118         0.802713        -0.793681
 H         2.214666         0.737225         0.874644
 H         2.774787        -0.652898         0.102982
 H        -2.483218        -1.349427        -0.546770
 H        -2.251332         1.645820        -1.287691
 H        -2.551432         0.076797        -2.186217
 H        -3.803544         0.764771        -1.096912
 H        -5.000053        -0.670660         3.136550
 H        -3.909333        -1.882385         3.631342
 H        -3.304085        -0.085708         3.439938
