19
Iteration:  1348charge 0 multiplicity 1
 C         1.510992        -0.347090         0.409103
 C         0.170394        -0.295524        -0.139054
 C        -0.996192         0.036350        -0.271746
 C        -2.471823        -0.007713        -0.345957
 C        -2.930160         1.162110        -1.185859
 O        -3.065214        -0.032724         0.940198
 C        -2.995725        -1.254487         1.642659
 C        -3.909021        -1.161815         2.783253
 O        -2.420994        -2.239405         1.392798
 H         2.248502         0.043074        -0.202111
 H         1.554490         0.166128         1.505788
 H         1.737306        -1.487334         0.609529
 H        -2.744696        -1.014517        -0.769040
 H        -3.084456         2.139870        -0.595127
 H        -2.201842         1.268262        -1.921180
 H        -3.865014         0.852864        -1.753494
 H        -4.675152        -1.972326         2.650521
 H        -3.374665        -1.343080         3.749385
 H        -4.426233        -0.215615         3.007798
