19
Iteration:  4436charge 0 multiplicity 1
 C         1.985019        -0.732363        -0.395983
 C         0.533082        -0.528416        -0.363192
 C        -0.609471        -0.301693        -0.146860
 C        -2.020073        -0.222697        -0.117271
 C        -2.715350         0.853030        -0.962195
 O        -2.411488        -0.174629         1.490115
 C        -3.546089        -0.918910         1.708755
 C        -4.119301        -0.555845         3.106917
 O        -4.043512        -1.689072         0.932220
 H         2.221347        -0.839032         0.749197
 H         2.037790        -1.780678        -0.788965
 H         2.557977         0.146468        -0.735923
 H        -2.424883        -1.203146        -0.307154
 H        -3.711598         0.522055        -1.230354
 H        -2.708257         1.896992        -0.485878
 H        -2.060430         1.051160        -1.841838
 H        -3.792746        -1.347773         3.800844
 H        -3.825967         0.429902         3.497904
 H        -5.204444        -0.502249         2.947638
