19
Iteration:   414charge 0 multiplicity 1
 C         1.648875        -0.013209         0.253388
 C         0.160082        -0.006703         0.038398
 C        -0.992841         0.254179        -0.224348
 C        -2.374802         0.020363        -0.398718
 C        -3.099040         1.108561        -1.174133
 O        -3.041477        -0.293283         0.928241
 C        -3.092153        -1.450900         1.635238
 C        -4.039912        -1.311651         2.863906
 O        -2.320000        -2.388927         1.419628
 H         1.886677         0.689518         0.920763
 H         1.849958        -1.000154         0.746337
 H         2.188917         0.149041        -0.785521
 H        -2.488866        -0.715050        -1.072035
 H        -2.662941         1.996665        -0.828436
 H        -2.730962         0.966065        -2.254580
 H        -4.204520         0.924343        -1.215262
 H        -3.416433        -1.027980         3.677280
 H        -4.621650        -0.445397         2.686347
 H        -4.606901        -2.176731         2.963641
