19
Iteration:   200
 C         1.500845         0.277371         0.357047
 C         0.102161         0.037258         0.208937
 C        -1.057765        -0.135217        -0.142074
 C        -2.494826        -0.128904        -0.456316
 C        -2.918583         1.193403        -1.214254
 O        -3.062162        -0.243695         0.844674
 C        -3.050276        -1.430485         1.570226
 C        -3.668803        -1.301154         2.996960
 O        -2.551040        -2.464690         1.186223
 H         2.146426        -0.217783        -0.554833
 H         1.631890         1.364584         0.197482
 H         2.124258        -0.020054         1.257244
 H        -2.727952        -1.046961        -1.040873
 H        -2.937679         1.916127        -0.433474
 H        -2.061645         1.634974        -1.853608
 H        -3.808067         1.190772        -1.793179
 H        -4.420292        -2.129514         3.085326
 H        -3.023873        -1.514953         3.855799
 H        -4.147613        -0.348366         3.255902
