19
Iteration:  4400charge 0 multiplicity 1
 C         1.978466        -0.636455        -0.468477
 C         0.557910        -0.668173        -0.151004
 C        -0.678460        -0.515409        -0.116825
 C        -2.114285        -0.199232        -0.137235
 C        -2.494201         1.060095        -0.800201
 O        -2.737132         0.023768         1.191253
 C        -3.533917        -0.939380         1.687035
 C        -4.021452        -0.500470         3.012453
 O        -3.918907        -1.973650         1.137046
 H         2.498633        -0.993309         0.479279
 H         2.274164        -1.420142        -1.230229
 H         2.490264         0.309872        -0.910741
 H        -2.730555        -1.115559        -0.579249
 H        -3.549577         1.331881        -0.696490
 H        -1.890722         1.768462        -0.332570
 H        -2.280128         1.013548        -1.880794
 H        -4.171065        -1.345061         3.660184
 H        -3.507174         0.330076         3.470609
 H        -5.073210        -0.231869         2.787644
