19
Iteration:  4670
 C         2.003241        -0.286862        -0.133337
 C         0.577693        -0.463514        -0.420504
 C        -0.606090        -0.634753        -0.329722
 C        -2.071735        -0.687914        -0.174934
 C        -2.651228         0.590755        -0.692712
 O        -2.371341        -0.644247         1.204851
 C        -3.603275        -0.774753         1.667068
 C        -3.687407        -0.557910         3.205130
 O        -4.558366        -0.936817         0.874714
 H         2.288174         0.757457         0.012609
 H         2.040507        -0.882789         0.813955
 H         2.801340        -0.499272        -0.815088
 H        -2.486654        -1.548029        -0.625760
 H        -3.707260         0.757246        -0.445564
 H        -2.035584         1.322109        -0.238915
 H        -2.544078         0.516512        -1.745644
 H        -2.677207        -0.659427         3.580329
 H        -4.094406         0.391122         3.608873
 H        -4.363412        -1.405194         3.436163
