19
Iteration:  4236
 C         1.375710        -1.454540         0.090616
 C         0.260745        -0.550299        -0.071471
 C        -0.890069        -0.067208        -0.226931
 C        -2.368122         0.184215        -0.285832
 C        -2.678498         1.378553        -1.108810
 O        -3.022501         0.156081         0.932127
 C        -3.075005        -0.936540         1.703792
 C        -3.931824        -0.812413         2.926391
 O        -2.693126        -2.035928         1.369173
 H         0.712865        -2.337734         0.277836
 H         1.941100        -1.639248        -0.830240
 H         1.992452        -1.306720         1.033057
 H        -2.594746        -0.659520        -0.928544
 H        -3.745973         1.873055        -0.875578
 H        -1.974270         2.115115        -0.832491
 H        -2.678560         1.174251        -2.222409
 H        -4.936934        -0.750107         2.473364
 H        -3.810300        -1.680745         3.560128
 H        -3.843024         0.070159         3.517151
