19
Iteration:  2440charge 0 multiplicity 1
 C         1.771987        -0.528732         0.291824
 C         0.316723        -0.284182         0.208260
 C        -0.831274        -0.162865        -0.246681
 C        -2.267276        -0.122515        -0.395684
 C        -2.739292         1.200193        -1.123226
 O        -3.059652        -0.072380         0.828233
 C        -3.230654        -1.151763         1.555514
 C        -3.811878        -0.800786         2.955209
 O        -3.189585        -2.303208         1.264711
 H         1.958988        -1.512028         0.190244
 H         2.228218        -0.162892        -0.666308
 H         2.356055        -0.171352         1.146892
 H        -2.585075        -1.003182        -0.858102
 H        -2.535863         2.013667        -0.335071
 H        -2.265340         1.615949        -1.984313
 H        -3.785862         1.189473        -1.345468
 H        -4.855714        -1.151408         3.052675
 H        -3.137691        -1.200547         3.705648
 H        -3.986461         0.253132         2.982089
