19
Iteration:  2363charge 0 multiplicity 1
 C         1.511519        -0.594302         0.440312
 C         0.136802        -0.474116         0.068757
 C        -1.000259        -0.326648        -0.395239
 C        -2.428053        -0.054467        -0.422787
 C        -2.737228         1.191034        -1.234298
 O        -2.822988         0.154069         1.070499
 C        -3.085621        -1.058677         1.658606
 C        -4.049624        -1.062598         2.892770
 O        -2.639276        -2.071743         1.204208
 H         1.695193        -1.315691         1.229271
 H         2.194015        -0.862899        -0.418467
 H         1.871206         0.409578         0.813828
 H        -3.097306        -0.815251        -0.718448
 H        -2.219573         2.194300        -0.997334
 H        -2.632317         1.021598        -2.248148
 H        -3.739768         1.508907        -1.083985
 H        -4.871327        -0.608703         2.320680
 H        -4.282492        -2.089923         3.126059
 H        -3.760924        -0.534674         3.804915
