19
Iteration:   270charge 0 multiplicity 1
 C         1.519985        -0.032850         0.407252
 C         0.145775         0.130978         0.088429
 C        -1.032528        -0.119748        -0.188570
 C        -2.484431        -0.151175        -0.469336
 C        -3.062089         1.174899        -0.978713
 O        -3.264767        -0.321149         0.752787
 C        -2.960683        -1.376404         1.565141
 C        -3.822892        -1.222371         2.838180
 O        -2.169592        -2.233109         1.295233
 H         2.082793         0.379258        -0.369136
 H         1.669926         0.680789         1.271578
 H         1.850281        -1.240474         0.670639
 H        -2.698525        -1.031172        -1.076433
 H        -2.569189         2.129207        -0.437531
 H        -2.945617         1.300431        -2.086341
 H        -4.222325         0.956072        -0.724567
 H        -4.110303        -2.272503         2.984810
 H        -3.200336        -0.709862         3.612709
 H        -4.613877        -0.511269         2.551109
