19
Iteration:  3057
 C         1.806932        -0.570533         0.301496
 C         0.445651        -0.365425         0.163173
 C        -0.728583        -0.219149        -0.024910
 C        -2.194097        -0.152562        -0.275196
 C        -2.792867         0.747367        -1.320416
 O        -2.846863         0.153764         0.989615
 C        -3.387350        -1.003195         1.569541
 C        -3.810492        -0.680601         3.018006
 O        -3.500081        -2.092579         0.997691
 H         2.106395        -0.832169         1.373856
 H         2.157859        -1.514303        -0.238157
 H         2.315376         0.128271        -0.446192
 H        -2.388703        -1.180738        -0.591911
 H        -3.856452         0.743405        -1.101185
 H        -2.576576         1.860302        -1.242188
 H        -2.589518         0.297292        -2.279377
 H        -3.063546        -0.291501         3.656369
 H        -4.591090         0.082409         2.837023
 H        -4.130864        -1.666863         3.374813
