19
Iteration:   622charge 0 multiplicity 1
 C         1.919591         0.476867         0.170347
 C         0.458935         0.285694        -0.005185
 C        -0.726551         0.174718        -0.204070
 C        -2.135995        -0.279510        -0.241041
 C        -3.058030         0.551171        -1.064314
 O        -2.694622        -0.265655         1.096225
 C        -3.335536        -1.393953         1.576290
 C        -3.812476        -1.217739         2.996079
 O        -3.608662        -2.408381         0.992427
 H         2.545153        -0.328815         0.098384
 H         2.325881         1.212687        -0.604987
 H         2.137426         1.013192         1.211807
 H        -2.120192        -1.324568        -0.645360
 H        -3.191015         1.556237        -0.613235
 H        -2.663699         0.766187        -2.094675
 H        -3.987275         0.018089        -1.202213
 H        -4.832018        -0.921769         2.930895
 H        -3.886855        -2.155387         3.443776
 H        -3.288923        -0.564864         3.635919
