19
Iteration:  2139charge 0 multiplicity 1
 C         1.622987        -0.441208         0.296563
 C         0.260691        -0.234274        -0.002440
 C        -0.970279        -0.354099        -0.173321
 C        -2.416453        -0.150125        -0.340579
 C        -2.734338         1.113152        -1.190618
 O        -2.856773         0.062827         1.051443
 C        -3.101449        -1.157506         1.678651
 C        -4.096462        -0.869672         2.830314
 O        -2.786669        -2.217007         1.193378
 H         2.076607         0.500942         0.766039
 H         1.697176        -1.214101         1.056746
 H         2.284971        -0.743522        -0.617019
 H        -3.007645        -0.930220        -0.757705
 H        -2.055615         2.037995        -1.044528
 H        -2.616986         0.996965        -2.305902
 H        -3.783063         1.261813        -1.171024
 H        -3.670711        -0.948301         3.886678
 H        -4.738874         0.027442         2.752386
 H        -4.740958        -1.736088         2.659286
