19
Iteration:  2964
 C         1.931034         0.032331         0.087645
 C         0.584211        -0.263529         0.022744
 C        -0.571374        -0.553743        -0.170123
 C        -2.048162        -0.550943        -0.274077
 C        -2.474409         0.652548        -1.073992
 O        -2.584622        -0.307643         1.130590
 C        -3.638222        -0.930236         1.566819
 C        -3.825997        -0.683098         3.083197
 O        -4.336968        -1.762929         0.941907
 H         2.070514         0.649512         1.068278
 H         2.653682        -0.750707         0.183699
 H         2.181989         0.475742        -0.831935
 H        -2.573153        -1.452198        -0.623073
 H        -3.519061         0.723623        -1.307633
 H        -2.332234         1.584742        -0.526012
 H        -1.964110         0.809988        -2.071949
 H        -2.929321        -1.101047         3.628710
 H        -3.731395         0.404764         3.128160
 H        -4.715258        -1.000432         3.600410
