19
Iteration:  2024charge 0 multiplicity 1
 C         1.798103        -0.158250         0.058565
 C         0.397765         0.030860         0.066635
 C        -0.800060        -0.194468         0.008625
 C        -2.240809        -0.275846        -0.231979
 C        -2.618983         0.793411        -1.221034
 O        -2.885754        -0.102702         1.005439
 C        -3.348157        -1.174070         1.625847
 C        -3.910372        -0.822034         2.994898
 O        -3.459413        -2.221845         1.061651
 H         2.419890         0.514170        -0.585816
 H         2.284652        -0.114037         1.056083
 H         1.886276        -1.193645        -0.244350
 H        -2.454705        -1.388369        -0.471240
 H        -2.288516         1.623717        -0.705294
 H        -1.970165         0.653887        -2.173679
 H        -3.708159         0.725217        -1.491096
 H        -4.785265        -1.426317         3.280113
 H        -3.235171        -1.180375         3.828571
 H        -4.058860         0.247547         3.134037
