19
Iteration:  1413charge 0 multiplicity 1
 C         1.735913        -0.251110         0.174320
 C         0.304663        -0.158292         0.012079
 C        -0.895562         0.117598         0.063112
 C        -2.293686        -0.095870        -0.285894
 C        -2.944826         0.970897        -1.139906
 O        -3.090720        -0.075525         0.925994
 C        -3.233120        -1.273943         1.554042
 C        -3.917159        -0.998886         2.886246
 O        -2.750131        -2.376849         1.182665
 H         2.341053         0.518418        -0.190453
 H         2.149340        -0.463525         1.243903
 H         1.958541        -1.131179        -0.384406
 H        -2.431415        -1.055379        -0.770019
 H        -2.655145         1.987813        -0.776994
 H        -2.675214         1.040138        -2.097869
 H        -4.053909         0.846373        -1.114279
 H        -3.798889        -1.853592         3.578107
 H        -3.544231         0.010420         3.168431
 H        -4.993910        -0.728846         2.758613
