19
Iteration:  4378
 C         1.891975        -0.644451        -0.442824
 C         0.443403        -0.603175        -0.141174
 C        -0.754523        -0.615452        -0.031542
 C        -2.122177        -0.197269        -0.220113
 C        -2.253415         1.255746        -0.881770
 O        -2.813132        -0.028826         1.093001
 C        -3.597087        -1.022509         1.701051
 C        -4.055227        -0.459929         3.077370
 O        -3.760766        -2.080763         1.230070
 H         2.532112        -1.080397         0.395613
 H         1.997088        -1.232046        -1.411687
 H         2.274324         0.421635        -0.846169
 H        -2.877889        -0.958954        -0.715173
 H        -3.211744         1.758582        -0.655617
 H        -1.479590         1.887048        -0.585482
 H        -2.269187         1.136721        -1.971630
 H        -4.309436        -1.305210         3.703379
 H        -3.229273         0.115169         3.481428
 H        -4.988109         0.106001         3.035919
