19
Iteration:  2739charge 0 multiplicity 1
 C         2.045637         0.073258        -0.205874
 C         0.661742        -0.229697        -0.166759
 C        -0.540449        -0.303242         0.053670
 C        -1.980125        -0.519955        -0.057730
 C        -2.556817         0.372768        -1.086803
 O        -2.469589        -0.298219         1.418533
 C        -3.643739        -0.927456         1.620690
 C        -4.166500        -0.881614         3.077765
 O        -4.261291        -1.549605         0.741898
 H         2.120093         1.000751        -0.792288
 H         2.383568         0.230236         0.834391
 H         2.722313        -0.610835        -0.756293
 H        -2.184137        -1.577224        -0.105668
 H        -3.612116         0.407592        -1.117062
 H        -2.021186         1.324186        -1.089789
 H        -2.400472        -0.002241        -2.132225
 H        -5.090047        -0.241103         3.006861
 H        -4.629499        -1.854195         3.244513
 H        -3.537615        -0.447732         3.846844
