19
Iteration:  2926charge 0 multiplicity 1
 C         1.985921         0.234696         0.032293
 C         0.659750        -0.407061        -0.068041
 C        -0.548400        -0.590579        -0.115133
 C        -1.984574        -0.616922        -0.152675
 C        -2.655604         0.596844        -1.045287
 O        -2.392612        -0.529506         1.268848
 C        -3.660686        -0.883912         1.616051
 C        -3.960212        -0.703998         3.035326
 O        -4.374340        -1.486353         0.780530
 H         1.980235         1.071678         0.542308
 H         2.766958        -0.481296         0.313019
 H         2.164153         0.721916        -0.970323
 H        -2.182226        -1.618181        -0.572823
 H        -3.707654         0.621313        -0.648803
 H        -2.031713         1.458949        -0.844264
 H        -2.694635         0.326950        -2.071047
 H        -3.530653        -1.414288         3.736309
 H        -3.569665         0.296354         3.329189
 H        -5.067272        -0.622963         3.083265
