19
Iteration:  4677charge 0 multiplicity 1
 C         2.030110        -0.319358        -0.133523
 C         0.634017        -0.432199        -0.483597
 C        -0.583999        -0.580963        -0.311070
 C        -2.077994        -0.657919        -0.114691
 C        -2.694197         0.582409        -0.712311
 O        -2.327183        -0.648280         1.269934
 C        -3.642538        -0.801530         1.623220
 C        -3.682292        -0.544971         3.171981
 O        -4.631836        -0.956683         0.861059
 H         2.322354         0.763612         0.154769
 H         2.083784        -0.930220         0.808354
 H         2.674010        -0.832432        -0.910818
 H        -2.314057        -1.684390        -0.621796
 H        -3.794338         0.721860        -0.527937
 H        -2.066699         1.446831        -0.297906
 H        -2.497884         0.628070        -1.781106
 H        -2.672017        -0.735592         3.564573
 H        -4.092964         0.359109         3.588224
 H        -4.216544        -1.327732         3.753246
