19
Iteration:  2040
 C         1.824528        -0.284083         0.131034
 C         0.373590         0.077890        -0.056893
 C        -0.818573        -0.099197        -0.049887
 C        -2.237099        -0.340503        -0.286060
 C        -2.592103         0.837931        -1.209573
 O        -2.915091        -0.024928         1.090420
 C        -3.445661        -1.253571         1.630236
 C        -3.903332        -0.809388         3.013742
 O        -3.361398        -2.314950         1.102601
 H         2.470325         0.466235        -0.413244
 H         2.018884        -0.248111         1.208081
 H         2.143011        -1.243641        -0.386318
 H        -2.454139        -1.267022        -0.717181
 H        -2.566164         1.933819        -0.764545
 H        -1.927609         0.969614        -2.001636
 H        -3.559437         0.792669        -1.678289
 H        -4.761745        -1.442060         3.315072
 H        -3.067818        -0.603816         3.644688
 H        -4.388233         0.187822         2.958441
