19
Iteration:   457
 C         1.712286         0.195389         0.254788
 C         0.278364         0.185220        -0.093914
 C        -0.886233        -0.188576        -0.160020
 C        -2.378721        -0.214459        -0.350408
 C        -3.020883         1.040471        -0.919840
 O        -3.096056        -0.229937         0.877395
 C        -3.140509        -1.352370         1.611099
 C        -3.992255        -1.209120         2.871551
 O        -2.552220        -2.364936         1.242668
 H         1.878801         0.511628         1.185251
 H         2.083231        -0.859918         0.111774
 H         2.205379         0.941144        -0.552773
 H        -2.688654        -1.090375        -0.885135
 H        -2.620117         1.984808        -0.635888
 H        -2.753040         0.956888        -2.014775
 H        -4.077696         0.751117        -0.955524
 H        -3.516080        -0.591131         3.597125
 H        -4.939020        -0.774509         2.678397
 H        -4.138772        -2.138726         3.310219
