19
Iteration:  1046charge 0 multiplicity 1
 C         1.939762         0.392913         0.048117
 C         0.472087         0.221536         0.112769
 C        -0.710032        -0.058026        -0.041558
 C        -2.144834        -0.260443        -0.298785
 C        -2.888142         0.807086        -1.137712
 O        -2.775790        -0.310849         1.039705
 C        -3.398337        -1.408070         1.593249
 C        -3.899676        -1.097659         3.032455
 O        -3.584287        -2.431572         1.007626
 H         2.472610         0.157988         1.083343
 H         2.340069        -0.191577        -0.764829
 H         2.183453         1.364195        -0.126567
 H        -2.346401        -1.112552        -0.840257
 H        -2.492685         1.807444        -1.014928
 H        -2.944738         0.555596        -2.118700
 H        -3.958867         0.837854        -0.798220
 H        -4.675241        -1.799042         3.396199
 H        -3.032856        -1.128477         3.741119
 H        -4.330936        -0.135992         3.300666
