19
Iteration:   412charge 0 multiplicity 1
 C         1.648259        -0.027032         0.243832
 C         0.152497        -0.006440         0.060546
 C        -0.998580         0.253625        -0.226637
 C        -2.381425         0.045764        -0.386125
 C        -3.102537         1.103165        -1.190818
 O        -3.039505        -0.311466         0.936092
 C        -3.077273        -1.436155         1.632052
 C        -4.020477        -1.316728         2.844987
 O        -2.321489        -2.371382         1.423505
 H         1.844553         0.712490         0.922041
 H         1.783085        -1.011978         0.788686
 H         2.188807         0.109703        -0.815223
 H        -2.519166        -0.785576        -1.078395
 H        -2.601485         2.027998        -0.816004
 H        -2.727913         1.026937        -2.225744
 H        -4.213675         0.833522        -1.250765
 H        -3.435539        -1.088503         3.697431
 H        -4.619936        -0.443806         2.675700
 H        -4.635318        -2.195725         2.944016
