19
Iteration:  2226
 C         1.570762        -0.664066         0.213765
 C         0.152722        -0.417358         0.237313
 C        -1.016742        -0.232412        -0.015305
 C        -2.456741        -0.123729        -0.437956
 C        -2.705613         1.328122        -1.036991
 O        -3.246202        -0.077567         0.742677
 C        -3.177169        -1.213133         1.566384
 C        -3.881376        -0.791437         2.741727
 O        -2.434481        -2.133006         1.384199
 H         2.082307        -0.182457         1.116024
 H         1.851978        -1.699993         0.102740
 H         1.911094        -0.025350        -0.623004
 H        -2.682030        -0.846661        -1.213650
 H        -2.559781         1.981993        -0.128415
 H        -1.840479         1.455616        -1.791782
 H        -3.718307         1.493861        -1.416817
 H        -3.544690         0.294496         2.811627
 H        -4.968770        -0.896759         2.526365
 H        -3.555642        -1.185029         3.683956
