19
Iteration:  4456charge 0 multiplicity 1
 C         2.061950        -0.840747        -0.333093
 C         0.639740        -0.352320        -0.400299
 C        -0.602627        -0.201553        -0.202735
 C        -2.034037        -0.280928         0.030106
 C        -2.822709         0.650392        -0.888757
 O        -2.347185        -0.196189         1.370961
 C        -3.575524        -0.856131         1.727735
 C        -4.076181        -0.654668         3.090062
 O        -4.163546        -1.487453         0.884959
 H         2.338608        -0.719623         0.784894
 H         2.149156        -1.921482        -0.698485
 H         2.637390        -0.036125        -0.919128
 H        -2.500222        -1.353690        -0.256701
 H        -3.784648         0.371263        -1.193477
 H        -3.016963         1.553156        -0.344549
 H        -2.118728         0.951727        -1.691878
 H        -3.704103        -1.309889         3.869662
 H        -3.861716         0.360513         3.408887
 H        -5.151939        -0.842402         2.989813
