19
Iteration:   461
 C         1.703355         0.219667         0.208887
 C         0.266377         0.176036        -0.068409
 C        -0.883124        -0.208256        -0.165487
 C        -2.357983        -0.234456        -0.321151
 C        -2.991042         1.036305        -0.984142
 O        -3.086066        -0.220757         0.903920
 C        -3.142458        -1.374527         1.588559
 C        -4.009198        -1.201242         2.907869
 O        -2.557981        -2.363000         1.211330
 H         1.829427         0.518101         1.338910
 H         2.091479        -0.758598         0.088014
 H         2.083786         0.919762        -0.442287
 H        -2.716507        -1.125744        -0.829484
 H        -2.647902         1.928499        -0.380593
 H        -2.755872         1.083962        -2.068700
 H        -4.047926         0.828045        -0.895537
 H        -3.501694        -0.408144         3.553134
 H        -5.015015        -0.719323         2.749961
 H        -4.118226        -2.239349         3.363256
