19
Iteration:   238
 C         1.624054         0.141896         0.470271
 C         0.217804         0.008686        -0.082709
 C        -1.008492        -0.061661        -0.226619
 C        -2.519583        -0.160977        -0.436702
 C        -3.006128         1.183263        -1.009966
 O        -3.281757        -0.314528         0.755616
 C        -3.049275        -1.408368         1.538634
 C        -3.746640        -1.223344         2.926705
 O        -2.334573        -2.368405         1.297746
 H         2.270520         0.208783        -0.266601
 H         1.578634         1.117198         0.991395
 H         1.812062        -0.624669         1.322954
 H        -2.863903        -0.946198        -1.126784
 H        -2.928595         1.964990        -0.125687
 H        -2.385744         1.428071        -1.880694
 H        -4.184027         1.208057        -1.174271
 H        -4.369915        -2.111632         3.032188
 H        -2.895944        -1.098997         3.630234
 H        -4.387500        -0.330233         2.895572
