19
Iteration:  4341
 C         1.723030        -0.647087        -0.303557
 C         0.307376        -0.695279        -0.285647
 C        -0.927678        -0.626422        -0.095876
 C        -2.277213        -0.086006        -0.226618
 C        -2.047074         1.279836        -0.939018
 O        -2.968963         0.165541         1.109524
 C        -3.427175        -1.025605         1.717494
 C        -4.044073        -0.555650         3.008039
 O        -3.471537        -2.194560         1.337320
 H         2.195341        -1.401423         0.286352
 H         1.831881        -1.165460        -1.286294
 H         2.370322         0.243604        -0.270487
 H        -2.842801        -0.852120        -0.839520
 H        -2.945923         1.875026        -1.079492
 H        -1.275776         1.890970        -0.246614
 H        -1.518082         1.037834        -1.837542
 H        -4.729569        -1.337937         3.419354
 H        -3.300428        -0.282951         3.810900
 H        -4.535710         0.386390         2.727757
