19
Iteration:  2822
 C         2.030021         0.222026        -0.412865
 C         0.774350        -0.217238         0.012146
 C        -0.412161        -0.277764         0.193404
 C        -1.835505        -0.640604         0.089153
 C        -2.501518         0.264795        -1.066981
 O        -2.488964        -0.625247         1.359064
 C        -3.842448        -0.941854         1.539159
 C        -4.021152        -0.816793         3.053407
 O        -4.606633        -1.221210         0.678131
 H         2.231964         1.242582        -0.356945
 H         2.856826        -0.190296         0.180680
 H         2.241229        -0.281764        -1.358313
 H        -1.866450        -1.744828        -0.105964
 H        -3.299569        -0.289917        -1.452963
 H        -3.173460         1.048196        -0.629286
 H        -1.695213         0.555310        -1.799848
 H        -4.795860        -1.484409         3.385848
 H        -3.062551        -0.925539         3.571916
 H        -4.327564         0.177055         3.405229
