19
Iteration:  3075charge 0 multiplicity 1
 C         1.827243        -0.709516         0.320441
 C         0.332390        -0.337148         0.144144
 C        -0.848680        -0.142577        -0.069381
 C        -2.269523        -0.160198        -0.277306
 C        -2.812258         0.790208        -1.341889
 O        -2.839739         0.108693         1.042339
 C        -3.286728        -0.990542         1.570367
 C        -3.902666        -0.667593         2.915820
 O        -3.260866        -2.081451         1.018944
 H         1.940465        -0.947668         1.403842
 H         2.096732        -1.627882        -0.142718
 H         2.539463         0.028019        -0.026222
 H        -2.711258        -1.169563        -0.310354
 H        -3.974761         0.861818        -1.123401
 H        -2.542344         1.801795        -1.109269
 H        -2.512407         0.425388        -2.305386
 H        -3.116849        -0.090262         3.443965
 H        -4.619241         0.139772         2.829669
 H        -4.059264        -1.575056         3.528387
