19
Iteration:   956charge 0 multiplicity 1
 C         1.949047         0.702464        -0.191429
 C         0.599138         0.264304         0.075494
 C        -0.566706        -0.055279        -0.073880
 C        -1.960499        -0.465756        -0.092468
 C        -2.873677         0.387129        -1.014763
 O        -2.489535        -0.396145         1.340667
 C        -3.504645        -1.247276         1.596543
 C        -4.075124        -1.252022         2.973084
 O        -3.995015        -2.058139         0.767382
 H         2.241921         1.471515         0.634082
 H         2.524709        -0.142785        -0.122212
 H         1.986932         1.108367        -1.272503
 H        -2.095289        -1.562701        -0.225493
 H        -3.431523         1.067664        -0.363548
 H        -2.284338         0.888378        -1.851886
 H        -3.651983        -0.219810        -1.508327
 H        -4.910861        -0.522481         3.084255
 H        -4.208814        -2.324973         3.181211
 H        -3.324522        -0.838316         3.766854
