19
Iteration:   119
 C         1.733856         0.436615         0.299566
 C         0.340524         0.209085         0.116660
 C        -0.836101         0.207338        -0.149785
 C        -2.299057        -0.087230        -0.265101
 C        -3.042858         0.927104        -1.245063
 O        -2.922506        -0.263990         0.983352
 C        -3.185817        -1.471880         1.567718
 C        -3.708340        -1.427043         3.003595
 O        -3.147296        -2.551129         1.048719
 H         2.237496        -0.683702         0.398834
 H         2.192029         1.002705        -0.526467
 H         1.799068         1.012195         1.194068
 H        -2.278299        -1.074480        -0.775322
 H        -2.638050         1.933925        -1.180152
 H        -2.872336         0.392590        -2.071999
 H        -4.093668         0.929258        -1.010986
 H        -4.596407        -2.061549         2.974133
 H        -2.825753        -1.881136         3.512544
 H        -3.924796        -0.403723         3.358330
