19
Iteration:   574charge 0 multiplicity 1
 C         1.743626         0.531312         0.090529
 C         0.349974         0.304035         0.017687
 C        -0.803613        -0.095131         0.091880
 C        -2.238366        -0.316871        -0.274837
 C        -2.843725         0.842615        -1.165150
 O        -2.872544        -0.278460         1.010500
 C        -3.349647        -1.442847         1.576380
 C        -3.758159        -1.136118         3.038577
 O        -3.319713        -2.535403         1.006422
 H         2.149145        -0.453971         0.601032
 H         2.258211         0.537151        -0.903528
 H         2.092968         1.292910         0.671203
 H        -2.378033        -1.304563        -0.831763
 H        -2.384466         1.773167        -0.838373
 H        -2.498611         0.807490        -2.226866
 H        -3.963091         0.843702        -1.213489
 H        -4.187748        -0.097503         3.142483
 H        -4.504008        -1.872886         3.500701
 H        -2.807703        -1.104420         3.646324
