19
Iteration:  1499charge 0 multiplicity 1
 C         1.837713         0.218489        -0.002518
 C         0.400497        -0.110072         0.018924
 C        -0.804290        -0.390344        -0.003366
 C        -2.254167        -0.295378        -0.211270
 C        -2.703037         0.900450        -1.076816
 O        -2.870463        -0.062925         1.111495
 C        -3.326798        -1.282858         1.582022
 C        -3.844041        -0.957991         2.947941
 O        -3.442966        -2.332348         0.960827
 H         1.910950         1.373342         0.383003
 H         2.337231        -0.439451         0.814582
 H         2.299089         0.191733        -0.909218
 H        -2.637241        -1.241968        -0.525699
 H        -2.569219         1.880164        -0.455634
 H        -2.164152         0.897400        -1.968811
 H        -3.846391         0.701814        -1.241573
 H        -3.190998        -0.550338         3.752092
 H        -4.480522        -0.045068         2.809385
 H        -4.410856        -1.785339         3.441915
