19
Iteration:  4916charge 0 multiplicity 1
 C         1.896992        -0.780132        -0.340189
 C         0.461677        -0.708001        -0.368528
 C        -0.732715        -0.398858        -0.302357
 C        -2.169355        -0.108539        -0.223351
 C        -2.391336         1.293735        -0.840849
 O        -2.676362         0.056406         1.153497
 C        -3.482177        -1.054317         1.741701
 C        -4.075549        -0.535119         3.056220
 O        -3.844663        -2.133311         1.367107
 H         2.368019        -0.750931        -1.352300
 H         2.504280        -0.126014         0.292598
 H         2.128944        -1.825903         0.155329
 H        -2.858822        -0.742943        -0.763166
 H        -3.390390         1.307484        -1.417043
 H        -2.524491         2.146212        -0.070675
 H        -1.561097         1.554166        -1.471014
 H        -4.878030        -1.271697         3.274716
 H        -3.180732        -0.439770         3.753107
 H        -4.467539         0.529112         2.925310
