19
Iteration:  3401
 C         1.828321        -0.723435        -0.122117
 C         0.402508        -0.516146         0.057769
 C        -0.758573        -0.212077         0.092524
 C        -2.148899        -0.133447        -0.213501
 C        -2.541170         0.863509        -1.396328
 O        -3.010640         0.218623         1.003163
 C        -3.338462        -0.943670         1.752169
 C        -4.301145        -0.673571         2.907749
 O        -3.103505        -2.085554         1.363492
 H         2.146848        -1.675416        -0.349279
 H         2.216367        -0.001062        -0.781862
 H         2.180567        -0.728580         0.910130
 H        -2.498454        -1.081360        -0.644769
 H        -3.662360         0.624566        -1.608743
 H        -2.445314         1.966133        -1.248916
 H        -1.981890         0.484044        -2.244056
 H        -5.111050        -0.051168         2.523457
 H        -4.800150        -1.650994         3.106206
 H        -4.014113        -0.272177         3.870821
