19
Iteration:  4467
 C         2.024518        -0.794436        -0.346701
 C         0.660054        -0.326839        -0.335158
 C        -0.536680        -0.201577        -0.201365
 C        -1.984651        -0.356456        -0.070852
 C        -2.878496         0.591299        -0.818997
 O        -2.376724        -0.185759         1.409853
 C        -3.564339        -0.795907         1.638434
 C        -4.034359        -0.668009         3.140152
 O        -4.244105        -1.420910         0.841789
 H         2.405167        -0.781623         0.742129
 H         2.070704        -1.904435        -0.600331
 H         2.876588        -0.318809        -0.951716
 H        -2.090552        -1.498084        -0.342991
 H        -3.751852         0.084872        -1.085702
 H        -3.012619         1.433348        -0.181297
 H        -2.415533         0.935971        -1.765480
 H        -3.447432        -1.360047         3.734620
 H        -3.932917         0.347093         3.517005
 H        -5.104332        -0.916355         3.159321
