19
Iteration:  2353
 C         1.526459        -0.620460         0.425424
 C         0.106573        -0.441537         0.135525
 C        -0.996282        -0.391258        -0.385941
 C        -2.411024        -0.006042        -0.470088
 C        -2.798843         1.234773        -1.165297
 O        -2.840900         0.172860         1.025537
 C        -3.078951        -1.025939         1.585366
 C        -4.069991        -1.068442         2.842347
 O        -2.577704        -2.110762         1.273685
 H         1.697761        -1.312784         1.324362
 H         2.025713        -0.986235        -0.542224
 H         1.947869         0.371294         0.653166
 H        -3.005441        -0.800740        -0.926127
 H        -2.089132         2.121577        -0.882018
 H        -2.542446         0.922022        -2.124175
 H        -3.834166         1.321130        -1.136463
 H        -5.057593        -0.477809         2.788100
 H        -4.320070        -2.082901         3.122732
 H        -3.529534        -0.572540         3.647877
