19
Iteration:  2677charge 0 multiplicity 1
 C         2.033362        -0.117988         0.029734
 C         0.622912        -0.077585         0.007428
 C        -0.557586        -0.242986        -0.178675
 C        -1.989016        -0.441671        -0.173701
 C        -2.884210         0.643799        -0.919164
 O        -2.407082        -0.408012         1.195767
 C        -3.591332        -1.049693         1.572713
 C        -4.029256        -0.582464         2.927804
 O        -4.130577        -1.954973         0.892792
 H         2.434629         0.550828        -0.870517
 H         2.416846         0.418062         0.883869
 H         2.379449        -1.119279         0.021767
 H        -2.122165        -1.428497        -0.681942
 H        -3.509681         1.278455        -0.149989
 H        -2.168328         1.291583        -1.394058
 H        -3.446302         0.180487        -1.706707
 H        -4.068745         0.546579         2.910358
 H        -5.108906        -0.844559         2.863938
 H        -3.562485        -0.989156         3.831856
