19
Iteration:  4889charge 0 multiplicity 1
 C         1.900019        -0.749038        -0.456030
 C         0.522400        -0.621090        -0.239499
 C        -0.697963        -0.498398        -0.091864
 C        -2.133070        -0.213831        -0.143703
 C        -2.431562         1.243561        -0.781885
 O        -2.777550        -0.140873         1.126428
 C        -3.583089        -1.011465         1.734194
 C        -3.977678        -0.352731         3.093395
 O        -3.848103        -2.041180         1.140638
 H         2.162785        -0.482736        -1.516748
 H         2.584717        -0.121097         0.170269
 H         2.334482        -1.738251        -0.346289
 H        -2.742479        -0.907000        -0.843074
 H        -3.460889         1.213998        -0.946598
 H        -2.194763         2.015116        -0.101578
 H        -1.943956         1.589220        -1.739082
 H        -4.412034        -1.158164         3.660159
 H        -3.026980         0.072459         3.354486
 H        -4.590508         0.513742         2.989206
