19
Iteration:  1261
 C         1.436917        -0.391118         0.377884
 C         0.042163        -0.187300         0.192191
 C        -1.119313        -0.049281        -0.100964
 C        -2.477245        -0.045501        -0.461638
 C        -2.843533         1.229680        -1.169256
 O        -3.285852        -0.251307         0.694438
 C        -2.997479        -1.267093         1.584842
 C        -3.815537        -1.061071         2.942020
 O        -2.151794        -2.178189         1.316200
 H         1.822579        -0.862947        -0.410659
 H         1.938296         0.633407         0.450336
 H         1.832104        -1.024035         1.325398
 H        -2.717364        -0.917357        -1.191590
 H        -2.165075         2.087502        -0.731711
 H        -2.679978         1.114097        -2.197099
 H        -3.919538         1.659528        -0.933541
 H        -4.340138        -0.113725         2.834317
 H        -4.481397        -1.939055         2.955797
 H        -3.074964        -0.851861         3.665242
