19
Iteration:   463charge 0 multiplicity 1
 C         1.690987         0.231611         0.192546
 C         0.262445         0.168276        -0.054223
 C        -0.888618        -0.214591        -0.169122
 C        -2.345892        -0.237185        -0.309837
 C        -2.971216         1.030449        -1.017418
 O        -3.082987        -0.214691         0.921613
 C        -3.146008        -1.384235         1.582790
 C        -4.013942        -1.196934         2.921724
 O        -2.561035        -2.364311         1.198476
 H         1.818446         0.527127         1.377680
 H         2.130617        -0.752230         0.064201
 H         2.094468         0.955472        -0.420694
 H        -2.725245        -1.193385        -0.850389
 H        -2.681822         1.892731        -0.286787
 H        -2.750052         1.158362        -2.060154
 H        -4.073271         0.891748        -0.860149
 H        -3.496408        -0.373826         3.521564
 H        -5.035767        -0.715504         2.760353
 H        -4.101605        -2.246497         3.388568
