19
Iteration:  3535charge 0 multiplicity 1
 C         1.779584        -0.045653         0.330308
 C         0.465775        -0.399796        -0.187570
 C        -0.709148        -0.704577        -0.267192
 C        -2.066337        -0.523504        -0.296144
 C        -2.711082         0.606718        -1.172932
 O        -2.425601        -0.176723         1.086535
 C        -3.481000        -0.868018         1.593376
 C        -3.680253        -0.489429         3.061143
 O        -4.132670        -1.768019         1.061632
 H         2.575439        -0.614526        -0.074878
 H         2.039273         0.970896         0.345147
 H         1.716464        -0.486996         1.326079
 H        -2.670301        -1.405549        -0.600333
 H        -3.862624         0.564697        -0.958484
 H        -2.238502         1.444096        -0.733958
 H        -2.673766         0.655073        -2.304054
 H        -4.567469         0.165640         3.116628
 H        -3.888009        -1.420739         3.571049
 H        -2.771595        -0.005585         3.519795
