19
Iteration:  1108charge 0 multiplicity 1
 C         1.830202         0.154129         0.305604
 C         0.368880         0.052999        -0.084359
 C        -0.833142        -0.204713        -0.107280
 C        -2.316374        -0.210683        -0.306532
 C        -2.947483         0.910680        -1.176237
 O        -2.959535        -0.104877         1.056099
 C        -3.298042        -1.311744         1.627343
 C        -3.815585        -1.121587         3.032580
 O        -3.094838        -2.354025         0.969064
 H         2.087241        -0.662825         1.006998
 H         2.598299         0.239467        -0.481119
 H         1.784196         1.196775         0.918396
 H        -2.582914        -1.287019        -0.616883
 H        -2.317032         1.875862        -1.111322
 H        -2.980469         0.600804        -2.253948
 H        -4.010474         0.935698        -0.733757
 H        -3.273562        -1.852944         3.560297
 H        -3.477171        -0.127282         3.244179
 H        -4.909886        -1.151962         2.884399
