19
Iteration:  1888
 C         2.040835         0.325583         0.037206
 C         0.640662         0.008907        -0.003443
 C        -0.580838        -0.164377        -0.139068
 C        -1.994762        -0.527025        -0.188672
 C        -2.930765         0.477107        -1.010636
 O        -2.432987        -0.539518         1.129170
 C        -3.562293        -1.135403         1.539260
 C        -3.955766        -0.636976         2.970376
 O        -4.147868        -2.005187         0.983833
 H         2.552303         0.180958        -0.823093
 H         2.190274         1.313896         0.418793
 H         2.422747        -0.331966         0.911327
 H        -2.081848        -1.511422        -0.691569
 H        -3.111990         1.490801        -0.490633
 H        -2.633564         0.682478        -1.977656
 H        -3.942708         0.068011        -1.129022
 H        -3.621240         0.367168         3.269033
 H        -5.064125        -0.693856         2.949377
 H        -3.401880        -1.375731         3.612291
