19
Iteration:  4742
 C         1.978410        -0.625653        -0.447521
 C         0.653685        -0.423984        -0.005229
 C        -0.527384        -0.298891        -0.160229
 C        -1.891609        -0.404322        -0.209667
 C        -2.781404         0.605384        -0.916682
 O        -2.368309        -0.434334         1.356985
 C        -3.658492        -0.824265         1.678020
 C        -3.860266        -0.586445         3.149261
 O        -4.459671        -1.253389         0.940458
 H         2.503191         0.174239        -0.983089
 H         2.647787        -1.011970         0.313759
 H         2.010901        -1.311873        -1.315762
 H        -2.337426        -1.429575        -0.439011
 H        -3.806755         0.175526        -1.267312
 H        -2.862053         1.551079        -0.240191
 H        -2.255100         0.901750        -1.844851
 H        -2.965356        -1.007058         3.637807
 H        -3.927063         0.469730         3.380762
 H        -4.826404        -1.128833         3.274050
