19
Iteration:  4973charge 0 multiplicity 1
 C         1.684649        -1.016526        -0.160817
 C         0.324960        -0.662070        -0.204577
 C        -0.868202        -0.493481        -0.269493
 C        -2.219217        -0.029971        -0.200447
 C        -2.623609         1.269845        -0.819989
 O        -2.757582         0.144980         1.195264
 C        -3.299753        -0.939868         1.680155
 C        -3.909031        -0.591491         2.940089
 O        -3.335168        -2.000787         1.137711
 H         1.988276        -1.415971        -1.146503
 H         2.238836        -0.108348         0.189645
 H         1.702301        -1.845895         0.579902
 H        -2.964529        -0.697996        -0.591575
 H        -3.712522         1.230675        -1.084957
 H        -2.267436         2.192604        -0.291135
 H        -2.095607         1.161175        -1.897714
 H        -4.953906        -0.678076         2.649978
 H        -3.835659        -1.359644         3.749942
 H        -3.779951         0.445143         3.260627
