19
Iteration:   706charge 0 multiplicity 1
 C         2.028201         0.735867         0.094088
 C         0.566064         0.373010        -0.011658
 C        -0.635154         0.070022        -0.101943
 C        -2.015723        -0.455169        -0.216715
 C        -3.089573         0.307655        -1.099738
 O        -2.450978        -0.516858         1.266000
 C        -3.454556        -1.316403         1.609582
 C        -3.879649        -1.245282         3.036192
 O        -4.006784        -2.031852         0.786607
 H         2.469967         0.307095        -0.900386
 H         2.131445         1.856598         0.202324
 H         2.440781         0.197928         0.843912
 H        -1.919496        -1.454828        -0.713489
 H        -3.050566         1.345658        -0.943769
 H        -2.842453         0.081985        -2.192965
 H        -4.082698         0.034116        -0.812450
 H        -4.481153        -2.133441         3.353307
 H        -3.052879        -1.022846         3.792189
 H        -4.620873        -0.410739         3.130223
