19
Iteration:  1651charge 0 multiplicity 1
 C         2.175091         0.441577        -0.189720
 C         0.763742         0.134098        -0.051186
 C        -0.475224        -0.070060        -0.106564
 C        -1.934720        -0.559589        -0.026888
 C        -3.008818         0.243203        -0.995141
 O        -2.447937        -0.397433         1.342020
 C        -3.655149        -1.042504         1.587168
 C        -4.089470        -1.142647         3.038181
 O        -4.238895        -1.739039         0.746646
 H         2.813740         0.281247         0.824745
 H         2.636898        -0.123385        -0.995256
 H         2.158847         1.446858        -0.532816
 H        -1.917872        -1.565352        -0.398154
 H        -2.996686         1.257929        -0.398060
 H        -2.521915         0.215806        -1.952743
 H        -4.076821        -0.222199        -0.996110
 H        -4.824350        -0.398677         3.257756
 H        -4.370270        -2.145358         3.229703
 H        -3.322020        -0.940558         3.790429
