19
Iteration:  3717
 C         1.984597         0.307036        -0.419324
 C         0.720826        -0.328898        -0.158422
 C        -0.386692        -0.690730         0.079531
 C        -1.824547        -0.897923         0.029942
 C        -2.563707         0.069252        -0.919891
 O        -2.368813        -0.480459         1.415620
 C        -3.744837        -0.655533         1.596795
 C        -4.130747        -0.833227         3.083407
 O        -4.551237        -0.896126         0.705430
 H         2.275153         0.165963        -1.437061
 H         1.704676         1.426571        -0.382848
 H         2.681248         0.123072         0.407811
 H        -2.153144        -1.980762        -0.286138
 H        -3.765659        -0.000187        -0.862980
 H        -2.106346         1.002666        -0.643854
 H        -2.135550        -0.091039        -1.907713
 H        -5.204017        -0.676590         3.129241
 H        -3.800290        -1.821300         3.238607
 H        -3.544382        -0.081612         3.629163
