19
Iteration:   593charge 0 multiplicity 1
 C         1.824701         0.468584         0.102595
 C         0.365282         0.316385         0.110237
 C        -0.791827         0.080145        -0.114414
 C        -2.210335        -0.224737        -0.275066
 C        -2.889250         0.775548        -1.192846
 O        -2.775831        -0.373559         1.096800
 C        -3.360583        -1.465580         1.611817
 C        -3.781871        -1.133399         3.036324
 O        -3.464218        -2.539798         1.010140
 H         2.542494        -0.417110         0.377696
 H         2.155239         0.869993        -0.798463
 H         2.170047         1.248745         0.791466
 H        -2.287277        -1.181938        -0.756237
 H        -2.673941         1.874848        -1.067924
 H        -2.524599         0.622784        -2.178367
 H        -3.954653         0.504966        -1.162184
 H        -4.476923        -0.214197         3.069526
 H        -4.233459        -2.135244         3.405612
 H        -2.849264        -0.720973         3.586638
