19
Iteration:  4077
 C         1.365463        -1.074511         0.572229
 C        -0.022751        -0.692389         0.037246
 C        -1.131381        -0.410461        -0.352973
 C        -2.469182         0.115274        -0.516686
 C        -2.506169         1.576790        -0.973172
 O        -3.195843         0.119181         0.842603
 C        -3.111638        -1.011954         1.529124
 C        -3.255998        -0.728598         2.944579
 O        -2.895603        -2.218850         1.159144
 H         1.769760        -2.097869         0.170745
 H         2.119271        -0.404673         0.014561
 H         1.505342        -1.070758         1.715797
 H        -3.113103        -0.511030        -1.308346
 H        -3.337612         2.130321        -0.631334
 H        -1.702126         2.032643        -0.403804
 H        -2.303196         1.632776        -2.070446
 H        -2.831262         0.311591         3.158250
 H        -4.364900        -0.629386         3.098638
 H        -2.804208        -1.431641         3.649845
