19
Iteration:    68charge 0 multiplicity 1
 C         1.807096         0.539390         0.309286
 C         0.346960         0.491690        -0.038855
 C        -0.799134         0.050313        -0.166288
 C        -2.213918        -0.283975        -0.205261
 C        -3.089751         0.689657        -0.893954
 O        -2.661345        -0.289394         1.162573
 C        -3.291532        -1.432965         1.458799
 C        -3.733565        -1.288317         2.882518
 O        -3.408808        -2.485234         0.825880
 H         2.045543        -0.264345         0.907839
 H         2.294280         0.401609        -0.674441
 H         2.114260         1.518449         0.689916
 H        -2.279336        -1.253873        -0.710727
 H        -3.236122         1.542338        -0.307702
 H        -2.576569         0.682591        -1.968680
 H        -3.976315         0.045092        -1.003629
 H        -4.640270        -1.839529         2.839663
 H        -2.990233        -1.708175         3.554975
 H        -4.035758        -0.264830         3.015853
