19
Iteration:   747charge 0 multiplicity 1
 C         1.895587         0.909522        -0.021490
 C         0.555979         0.401703        -0.077721
 C        -0.593654        -0.051519        -0.040103
 C        -1.945834        -0.659059        -0.128878
 C        -2.716041         0.341756        -0.984209
 O        -2.553883        -0.611475         1.225527
 C        -3.653999        -1.292651         1.556721
 C        -3.760434        -1.163002         3.042188
 O        -4.206488        -2.026877         0.765202
 H         2.307185         1.151202        -1.125421
 H         2.064678         1.828968         0.476055
 H         2.678245         0.135001         0.420801
 H        -1.999556        -1.700574        -0.322341
 H        -2.540499         1.309864        -0.529932
 H        -2.370013         0.353242        -2.052672
 H        -3.821832         0.301930        -0.935444
 H        -3.639033        -2.242353         3.493732
 H        -3.188097        -0.280293         3.557938
 H        -4.817505        -0.835728         3.321076
