19
Iteration:  2237
 C         1.548297        -0.680091         0.178063
 C         0.087762        -0.357808         0.324963
 C        -1.030308        -0.193249        -0.078811
 C        -2.383195        -0.125158        -0.411434
 C        -2.666312         1.350484        -0.994205
 O        -3.297389        -0.151543         0.658337
 C        -3.124612        -1.207532         1.561335
 C        -3.910689        -0.695239         2.825562
 O        -2.391912        -2.198113         1.359434
 H         2.167053        -0.484097         1.127053
 H         1.659071        -1.720171        -0.074619
 H         2.002435        -0.141704        -0.665384
 H        -2.618247        -1.067870        -0.935011
 H        -2.626408         2.113657        -0.164959
 H        -1.896268         1.809853        -1.738466
 H        -3.588661         1.368762        -1.588923
 H        -3.869616         0.448125         2.803360
 H        -5.005101        -0.923587         2.747963
 H        -3.530023        -1.253340         3.660904
