19
Iteration:   331
 C         1.598515        -0.194720         0.374706
 C         0.152555        -0.075538         0.028737
 C        -1.068211         0.102881        -0.052067
 C        -2.493097        -0.097154        -0.380002
 C        -3.101603         1.150207        -1.282102
 O        -3.342417        -0.201145         0.886189
 C        -2.989294        -1.283337         1.633572
 C        -3.787260        -1.471282         2.798493
 O        -2.105658        -2.042745         1.328499
 H         2.121106         0.817970        -0.010386
 H         1.669098        -0.330684         1.451142
 H         2.089605        -0.968974        -0.059187
 H        -2.647154        -1.100980        -0.919841
 H        -3.219428         2.040473        -0.704646
 H        -2.354480         1.315043        -2.078961
 H        -4.075890         1.004659        -1.613604
 H        -3.458175        -2.437001         3.251537
 H        -3.911024        -0.636595         3.526721
 H        -4.854009        -1.705618         2.589199
