19
Iteration:    16
 C         1.866384         0.834980         0.104599
 C         0.536748         0.287674        -0.023431
 C        -0.653509         0.121427        -0.165426
 C        -2.070822        -0.269012        -0.121073
 C        -3.069304         0.591700        -1.006296
 O        -2.477634        -0.426089         1.306091
 C        -3.359869        -1.486101         1.550317
 C        -3.924319        -1.462741         2.921295
 O        -3.817408        -2.298688         0.771445
 H         2.081617         0.861454         1.143007
 H         2.653742         0.281750        -0.481400
 H         1.816851         2.029816        -0.244521
 H        -2.031490        -1.281430        -0.545426
 H        -3.211670         1.487451        -0.398567
 H        -2.577309         0.970020        -2.005378
 H        -3.947104        -0.080606        -1.214145
 H        -4.698973        -2.213192         3.030187
 H        -3.077178        -1.775728         3.540007
 H        -4.284005        -0.449519         3.133141
