19
Iteration:  2222charge 0 multiplicity 1
 C         1.573027        -0.630335         0.228166
 C         0.166371        -0.441310         0.197806
 C        -1.010329        -0.251266         0.000251
 C        -2.456048        -0.068312        -0.465773
 C        -2.692847         1.293620        -1.050203
 O        -3.245532        -0.083456         0.769854
 C        -3.177031        -1.170497         1.567249
 C        -3.878165        -0.811501         2.735805
 O        -2.445227        -2.135501         1.383564
 H         2.083704        -0.182190         1.129065
 H         1.933845        -1.688729         0.158153
 H         1.990757        -0.141407        -0.609722
 H        -2.804927        -0.835054        -1.257460
 H        -2.582645         1.989499        -0.173397
 H        -1.980246         1.386921        -1.785121
 H        -3.710574         1.504348        -1.334184
 H        -3.648558         0.227717         2.873718
 H        -4.957383        -0.824294         2.620378
 H        -3.654693        -1.324068         3.687250
