19
Iteration:  2360
 C         1.520374        -0.617933         0.435459
 C         0.126644        -0.461389         0.095662
 C        -0.989265        -0.346534        -0.393759
 C        -2.432448        -0.036970        -0.452649
 C        -2.739777         1.197573        -1.197154
 O        -2.822668         0.156077         1.067340
 C        -3.079594        -1.030948         1.610600
 C        -4.063037        -1.072050         2.888995
 O        -2.621481        -2.080936         1.230655
 H         1.665684        -1.246102         1.217722
 H         2.111822        -0.848028        -0.429156
 H         1.872936         0.437690         0.753988
 H        -3.133447        -0.761421        -0.829205
 H        -2.274727         2.130793        -1.005184
 H        -2.590146         0.933324        -2.288672
 H        -3.845400         1.506002        -1.091248
 H        -4.882085        -0.601068         2.389398
 H        -4.334975        -2.095229         3.179041
 H        -3.665219        -0.571977         3.811862
