19
Iteration:   590charge 0 multiplicity 1
 C         1.835369         0.450823         0.103349
 C         0.353360         0.325481         0.099520
 C        -0.815143         0.046928        -0.081477
 C        -2.213644        -0.213948        -0.278153
 C        -2.877194         0.794599        -1.188854
 O        -2.780615        -0.397287         1.071188
 C        -3.369633        -1.443448         1.612737
 C        -3.781870        -1.125918         3.059692
 O        -3.436894        -2.538721         1.000998
 H         2.439821        -0.343743         0.379829
 H         2.138676         0.873819        -0.885711
 H         2.156039         1.372252         0.840751
 H        -2.309348        -1.184033        -0.739201
 H        -2.702475         1.882613        -1.043589
 H        -2.475935         0.504850        -2.184956
 H        -3.932804         0.573084        -1.145965
 H        -4.395612        -0.254690         3.062081
 H        -4.205732        -2.015484         3.384312
 H        -2.906390        -0.806594         3.577941
