19
Iteration:  1034charge 0 multiplicity 1
 C         1.946848         0.431853         0.039240
 C         0.501591         0.241957        -0.031328
 C        -0.669436        -0.082598         0.007824
 C        -2.121108        -0.316683        -0.252263
 C        -2.892739         0.776310        -1.096150
 O        -2.800599        -0.269979         1.106614
 C        -3.440555        -1.357339         1.590800
 C        -3.877675        -1.106683         3.017632
 O        -3.641148        -2.439303         0.967321
 H         2.362130         0.219217         1.152721
 H         2.489489        -0.199832        -0.566454
 H         2.124778         1.438658        -0.237386
 H        -2.216493        -1.340134        -0.512816
 H        -2.651914         1.833716        -0.862824
 H        -2.657341         0.629473        -2.080815
 H        -3.954650         0.588597        -0.794123
 H        -4.757509        -1.738571         3.123284
 H        -3.092608        -1.452601         3.715266
 H        -4.041905        -0.023757         2.889284
