19
Iteration:  1003
 C         1.898363         0.552451        -0.002694
 C         0.495550         0.169815        -0.199487
 C        -0.684160        -0.034003        -0.082306
 C        -2.053695        -0.399452        -0.087359
 C        -2.768984         0.585320        -1.012436
 O        -2.693827        -0.276995         1.242169
 C        -3.550451        -1.335905         1.575170
 C        -3.963649        -1.164627         3.020800
 O        -3.673128        -2.248434         0.842578
 H         1.986426         0.752072         1.144083
 H         2.594540        -0.260881        -0.359185
 H         2.042435         1.395493        -0.517091
 H        -2.173415        -1.387724        -0.342512
 H        -3.125537         1.495442        -0.524445
 H        -2.087459         0.803711        -1.740366
 H        -3.676652         0.149065        -1.473051
 H        -5.065388        -1.200619         3.119515
 H        -3.451289        -1.978177         3.637079
 H        -3.745679        -0.191263         3.473935
