19
Iteration:  4313
 C         1.700727        -0.815210        -0.222034
 C         0.256816        -0.812710        -0.234895
 C        -0.950605        -0.677129        -0.149276
 C        -2.282223        -0.118682        -0.283966
 C        -2.253402         1.345205        -0.838470
 O        -2.971431         0.156995         1.001638
 C        -3.425418        -0.896321         1.677057
 C        -4.098960        -0.596180         3.063053
 O        -3.115283        -2.003607         1.288227
 H         2.162120        -1.622880         0.426479
 H         1.931675        -0.995382        -1.288459
 H         2.135849         0.160682         0.094919
 H        -2.787830        -0.825169        -0.944070
 H        -3.279340         1.685721        -1.159920
 H        -2.024976         2.060382        -0.124756
 H        -1.558678         1.314047        -1.695946
 H        -4.868861        -1.333198         3.291830
 H        -3.303310        -0.793052         3.768689
 H        -4.480288         0.407101         3.179065
