19
Iteration:  2862
 C         2.134445         0.180833        -0.249380
 C         0.676185         0.020446        -0.147804
 C        -0.431042        -0.441089        -0.014725
 C        -1.853139        -0.764754        -0.042027
 C        -2.613881         0.230024        -0.938449
 O        -2.345687        -0.713832         1.384379
 C        -3.738892        -0.830896         1.595150
 C        -4.253210        -0.797454         3.057206
 O        -4.466407        -1.151078         0.728056
 H         2.466896         1.341441         0.163959
 H         2.749896        -0.474440         0.395207
 H         2.378170         0.036560        -1.332254
 H        -2.126444        -1.769615        -0.427001
 H        -3.758927         0.004414        -0.910333
 H        -2.421961         1.289852        -0.676828
 H        -2.325256         0.199369        -1.969870
 H        -4.575988        -1.776789         3.459541
 H        -3.404069        -0.420999         3.711299
 H        -5.142423        -0.084619         2.989367
