19
Iteration:  1345charge 0 multiplicity 1
 C         1.484059        -0.351255         0.422236
 C         0.161017        -0.327768        -0.162649
 C        -0.984257         0.048903        -0.264628
 C        -2.471165        -0.034560        -0.345234
 C        -2.924777         1.172003        -1.178887
 O        -3.090233        -0.012525         0.923423
 C        -2.986115        -1.235349         1.671794
 C        -3.918562        -1.170406         2.787440
 O        -2.395800        -2.255924         1.380561
 H         2.410659         0.060554        -0.158438
 H         1.511313         0.198562         1.417440
 H         1.679971        -1.323539         0.630119
 H        -2.732330        -0.998434        -0.723073
 H        -2.998078         2.121080        -0.683766
 H        -2.215280         1.332376        -1.938720
 H        -3.836866         0.899259        -1.731183
 H        -4.686189        -1.957139         2.594662
 H        -3.404334        -1.375964         3.778583
 H        -4.345742        -0.217225         3.108063
