19
Iteration:  3189charge 0 multiplicity 1
 C         1.481866        -0.842881         0.405330
 C         0.098266        -0.625579         0.117242
 C        -1.063508        -0.464004        -0.174189
 C        -2.403715        -0.082210        -0.592517
 C        -2.481317         1.348069        -1.074899
 O        -3.288164        -0.072997         0.625874
 C        -3.115082        -1.009483         1.567024
 C        -4.085317        -0.689024         2.836991
 O        -2.305887        -1.914656         1.608287
 H         1.762749        -1.559997         1.177128
 H         1.840110        -1.225657        -0.589187
 H         1.990746         0.082098         0.630701
 H        -2.747726        -0.794033        -1.352308
 H        -3.511317         1.748599        -1.173863
 H        -2.012254         2.124185        -0.375994
 H        -2.026178         1.276664        -2.133947
 H        -4.059306         0.312099         3.305314
 H        -5.116346        -0.694683         2.481973
 H        -3.868732        -1.425900         3.586251
