19
Iteration:   988
 C         1.894104         0.614223        -0.065998
 C         0.542549         0.170601        -0.135319
 C        -0.637375        -0.098450        -0.025146
 C        -2.075501        -0.401083        -0.138161
 C        -2.831652         0.543788        -1.148490
 O        -2.591705        -0.296787         1.355623
 C        -3.440755        -1.310035         1.607042
 C        -4.067340        -1.224382         3.070110
 O        -3.772598        -2.162041         0.811023
 H         2.195941         0.935946         0.964959
 H         2.572211        -0.158720        -0.173991
 H         2.193146         1.509335        -0.799244
 H        -2.208614        -1.520742        -0.379543
 H        -3.300693         1.315175        -0.482358
 H        -2.073518         1.104767        -1.800188
 H        -3.688105        -0.001061        -1.586849
 H        -5.151585        -1.206227         2.937562
 H        -3.896843        -2.189618         3.541435
 H        -3.517777        -0.328290         3.463947
