19
Iteration:  3732
 C         1.995875         0.415970        -0.495338
 C         0.666322        -0.329530        -0.230875
 C        -0.390415        -0.829534         0.128774
 C        -1.873612        -0.903206         0.148688
 C        -2.413790         0.162137        -0.867840
 O        -2.423968        -0.513388         1.409722
 C        -3.729250        -0.752939         1.604057
 C        -4.129544        -0.753921         3.015818
 O        -4.578451        -0.929562         0.663298
 H         2.493382         0.059683        -1.483044
 H         1.927551         1.525848        -0.381192
 H         2.789083         0.075762         0.272230
 H        -2.265082        -1.890117        -0.043520
 H        -3.391803         0.264068        -0.664551
 H        -2.109110         1.184331        -0.644596
 H        -2.259479        -0.105228        -1.926829
 H        -5.200922        -0.713956         3.160043
 H        -3.899073        -1.711732         3.553522
 H        -3.667795        -0.033173         3.670576
