19
Iteration:  3201charge 0 multiplicity 1
 C         1.452651        -0.841320         0.334264
 C         0.072754        -0.653588         0.162656
 C        -1.060362        -0.509304        -0.238255
 C        -2.341473        -0.031178        -0.481048
 C        -2.410419         1.350586        -1.097620
 O        -3.372800        -0.109271         0.517030
 C        -3.166966        -0.959916         1.665624
 C        -4.054407        -0.793522         2.839368
 O        -2.310104        -1.805095         1.635937
 H         1.556461        -1.559211         1.111629
 H         2.137589        -1.113136        -0.505197
 H         1.837104         0.138020         0.716695
 H        -2.821412        -0.624844        -1.251581
 H        -3.437793         1.618804        -1.126348
 H        -1.656700         2.002049        -0.546377
 H        -1.933635         1.384410        -2.166305
 H        -3.898320         0.242079         3.193030
 H        -5.084016        -1.039620         2.624204
 H        -3.759062        -1.497082         3.603454
