19
Iteration:  3819
 C         2.151196         0.001216        -0.558504
 C         0.764879        -0.324746        -0.139865
 C        -0.449886        -0.567862         0.041100
 C        -1.865506        -0.609130         0.078566
 C        -2.629776         0.535030        -0.655948
 O        -2.525482        -0.538074         1.437968
 C        -3.796867        -0.907635         1.496395
 C        -4.148154        -0.442805         2.961538
 O        -4.439001        -1.521663         0.723560
 H         2.538239        -0.462615        -1.551619
 H         2.202025         1.114330        -0.695765
 H         2.914138        -0.313684         0.262438
 H        -2.203525        -1.523166        -0.465446
 H        -3.608448         0.343412        -0.918751
 H        -2.456797         1.354065         0.084591
 H        -1.973016         0.873574        -1.477690
 H        -5.189548        -0.528983         3.260426
 H        -3.421215        -1.020875         3.555969
 H        -3.799247         0.565490         3.006858
