19
Iteration:   132
 C         1.722821         0.423683         0.347298
 C         0.321577         0.159091         0.013513
 C        -0.879758         0.103369        -0.051322
 C        -2.265780        -0.114636        -0.265522
 C        -3.030829         0.914795        -1.229841
 O        -3.066644        -0.144773         0.995693
 C        -3.205574        -1.446491         1.539956
 C        -3.633951        -1.413356         2.957336
 O        -3.026043        -2.557500         1.034749
 H         2.449831        -0.541300         0.326368
 H         2.159882         1.135292        -0.387788
 H         1.869000         0.791218         1.269672
 H        -2.445196        -1.128481        -0.684668
 H        -2.622107         1.853509        -1.186122
 H        -2.939777         0.748140        -2.253586
 H        -4.061743         0.941586        -1.105837
 H        -4.496940        -2.054480         3.087194
 H        -2.952219        -1.932820         3.653925
 H        -3.911589        -0.441478         3.372388
