19
Iteration:    34
 C         1.886396         0.773705         0.227455
 C         0.513939         0.241126        -0.094408
 C        -0.722108         0.169628        -0.201233
 C        -2.114240        -0.284172        -0.252864
 C        -3.111220         0.616096        -0.916270
 O        -2.545512        -0.424677         1.225478
 C        -3.390041        -1.434278         1.552105
 C        -3.894379        -1.404037         3.052464
 O        -3.600258        -2.341449         0.724136
 H         2.328303         0.543362         1.196785
 H         2.594252         0.404509        -0.511220
 H         1.943144         1.811848         0.164811
 H        -2.264343        -1.294617        -0.649090
 H        -3.575471         1.483110        -0.528661
 H        -2.602784         0.999304        -1.830582
 H        -3.895079         0.009442        -1.330372
 H        -4.753360        -2.046976         2.978218
 H        -3.286235        -1.727517         3.908244
 H        -4.263031        -0.412737         3.311152
