19
Iteration:  1235
 C         1.615196        -0.377998         0.388426
 C         0.191899        -0.160664         0.099733
 C        -1.023463        -0.008522        -0.043563
 C        -2.471081         0.025494        -0.430422
 C        -2.957059         1.258601        -1.225441
 O        -3.439541        -0.290727         0.675467
 C        -3.048416        -1.297763         1.538912
 C        -3.697777        -1.060267         2.938381
 O        -2.337800        -2.233927         1.402283
 H         2.162632        -1.208057        -0.180267
 H         2.189169         0.629178         0.324976
 H         1.698564        -0.619487         1.402014
 H        -2.588541        -0.848658        -1.064990
 H        -2.740327         2.079120        -0.630486
 H        -2.380947         1.318223        -2.201636
 H        -3.993009         1.287011        -1.388911
 H        -3.739295         0.027125         3.185105
 H        -4.675532        -1.586414         2.852449
 H        -2.893848        -1.576154         3.583254
