19
Iteration:  3876
 C         2.096688        -0.471450        -0.199257
 C         0.667562        -0.169240        -0.289060
 C        -0.572017        -0.220413        -0.205829
 C        -2.027556        -0.412787        -0.028450
 C        -2.821525         0.783448        -0.845788
 O        -2.338352        -0.418277         1.455502
 C        -3.567987        -0.997926         1.618840
 C        -4.282028        -0.606572         2.971992
 O        -4.128228        -1.677344         0.842046
 H         2.342459        -1.137923        -1.153720
 H         2.853470         0.320597        -0.420190
 H         2.603203        -1.019594         0.651963
 H        -2.296630        -1.449920        -0.368960
 H        -3.889393         0.849444        -0.751367
 H        -2.370435         1.744764        -0.582505
 H        -2.509750         0.490672        -1.799735
 H        -5.072864        -1.346713         3.165105
 H        -3.562883        -0.544210         3.795725
 H        -4.649665         0.430655         2.758755
