19
Iteration:  3610
 C         2.126104        -0.079289         0.253542
 C         0.720079        -0.154355        -0.089608
 C        -0.509163        -0.219668        -0.241652
 C        -1.958259        -0.634889        -0.265888
 C        -2.926437         0.115503        -1.277877
 O        -2.423677        -0.503322         1.124122
 C        -3.675687        -0.854009         1.634879
 C        -3.668881        -0.688437         3.199858
 O        -4.597365        -1.187605         0.959863
 H         2.637540        -0.597655        -0.570746
 H         2.529365         1.000824         0.204674
 H         2.487939        -0.646832         1.165928
 H        -2.223170        -1.612214        -0.596190
 H        -3.971542        -0.303295        -1.099878
 H        -2.919926         1.138854        -1.118040
 H        -2.711178        -0.107294        -2.315742
 H        -4.452753        -0.015985         3.552420
 H        -3.790388        -1.626372         3.703144
 H        -2.661070        -0.308940         3.485820
