19
Iteration:  1029
 C         1.954116         0.470219         0.056322
 C         0.511664         0.222737        -0.094670
 C        -0.674375        -0.080922         0.006608
 C        -2.103553        -0.320223        -0.200418
 C        -2.887744         0.719755        -1.060088
 O        -2.804375        -0.243316         1.136511
 C        -3.460511        -1.379609         1.580340
 C        -3.857603        -1.111601         2.965878
 O        -3.658795        -2.417183         0.956118
 H         2.177280         0.270034         1.041258
 H         2.485088        -0.362760        -0.571971
 H         2.193616         1.579233        -0.296442
 H        -2.209098        -1.462903        -0.449313
 H        -2.713824         1.755047        -0.698752
 H        -2.435436         0.689015        -2.167133
 H        -3.959745         0.629547        -0.869324
 H        -4.848493        -1.585311         3.107747
 H        -3.143193        -1.525037         3.677000
 H        -4.020027        -0.014491         3.015901
