19
Iteration:  4257
 C         1.492074        -1.326565        -0.022202
 C         0.145939        -0.644463        -0.062367
 C        -0.940760        -0.188784        -0.171377
 C        -2.312489         0.104413        -0.362532
 C        -2.543149         1.451918        -1.109459
 O        -2.986110         0.233890         1.054065
 C        -3.202276        -1.053222         1.669164
 C        -4.022878        -0.722991         2.945863
 O        -2.735512        -2.117288         1.369749
 H         1.376840        -2.378640         0.303566
 H         1.984531        -1.302820        -1.014981
 H         2.066699        -0.623878         0.716381
 H        -2.774047        -0.798469        -0.881450
 H        -3.679406         1.671660        -1.100684
 H        -1.902825         2.206286        -0.759358
 H        -2.432883         1.408225        -2.191719
 H        -5.104873        -0.842886         2.820443
 H        -3.604122        -1.273756         3.784709
 H        -3.860850         0.296520         3.226832
