19
Iteration:  4667charge 0 multiplicity 1
 C         1.986024        -0.276038        -0.131861
 C         0.569992        -0.472121        -0.398030
 C        -0.636211        -0.661718        -0.334789
 C        -2.058219        -0.695540        -0.210015
 C        -2.631043         0.595984        -0.703071
 O        -2.377294        -0.649361         1.198890
 C        -3.622663        -0.748863         1.670677
 C        -3.688873        -0.577377         3.209232
 O        -4.512771        -0.930290         0.899073
 H         2.229202         0.856399         0.038817
 H         2.162787        -0.846611         0.840525
 H         2.818533        -0.483097        -0.832205
 H        -2.647023        -1.583001        -0.652520
 H        -3.702334         0.745169        -0.398993
 H        -2.007659         1.399966        -0.231007
 H        -2.573260         0.547143        -1.737492
 H        -2.683570        -0.641867         3.625489
 H        -4.100670         0.379752         3.494690
 H        -4.401058        -1.399640         3.366208
