19
Iteration:  1234charge 0 multiplicity 1
 C         1.618838        -0.372800         0.396028
 C         0.194523        -0.158010         0.093959
 C        -1.023410        -0.009643        -0.043186
 C        -2.464554         0.020399        -0.427542
 C        -2.963591         1.257634        -1.221456
 O        -3.437621        -0.288226         0.670013
 C        -3.048171        -1.294037         1.538415
 C        -3.697864        -1.060654         2.947423
 O        -2.344079        -2.235087         1.399202
 H         2.168375        -1.242475        -0.217559
 H         2.171800         0.598930         0.312068
 H         1.694641        -0.596148         1.393965
 H        -2.575152        -0.817117        -1.090811
 H        -2.751544         2.069950        -0.625771
 H        -2.369898         1.321915        -2.194328
 H        -3.984725         1.250375        -1.409582
 H        -3.738903         0.023358         3.185802
 H        -4.666961        -1.567482         2.866624
 H        -2.916700        -1.608485         3.586679
