19
Iteration:  3058charge 0 multiplicity 1
 C         1.792652        -0.584160         0.304751
 C         0.442301        -0.362121         0.163164
 C        -0.728162        -0.221149        -0.023793
 C        -2.199086        -0.151122        -0.270892
 C        -2.803794         0.748090        -1.308849
 O        -2.847216         0.153262         0.992634
 C        -3.382118        -0.996499         1.579576
 C        -3.808010        -0.681132         3.002347
 O        -3.483138        -2.091703         0.994793
 H         2.088261        -0.820898         1.362879
 H         2.150148        -1.535153        -0.242008
 H         2.339539         0.173565        -0.445840
 H        -2.361537        -1.185381        -0.633113
 H        -3.846661         0.739682        -1.148760
 H        -2.545259         1.870452        -1.263955
 H        -2.585300         0.282676        -2.296897
 H        -3.036483        -0.271641         3.648182
 H        -4.620394         0.067612         2.808936
 H        -4.159972        -1.653133         3.377613
