19
Iteration:   595charge 0 multiplicity 1
 C         1.819483         0.479435         0.110569
 C         0.382244         0.308873         0.116824
 C        -0.780919         0.101157        -0.135587
 C        -2.203881        -0.232075        -0.270463
 C        -2.900234         0.766031        -1.192069
 O        -2.772217        -0.350970         1.112511
 C        -3.353764        -1.485302         1.606536
 C        -3.781486        -1.138463         3.021198
 O        -3.483063        -2.537193         1.019216
 H         2.541495        -0.438059         0.355991
 H         2.186996         0.882839        -0.829317
 H         2.163786         1.160897         0.771014
 H        -2.282319        -1.229381        -0.781014
 H        -2.671982         1.827342        -1.051008
 H        -2.544218         0.675667        -2.223356
 H        -3.980577         0.484037        -1.184734
 H        -4.515875        -0.248951         3.067023
 H        -4.231039        -2.144365         3.432660
 H        -2.858612        -0.712023         3.574907
