19
Iteration:  2131
 C         1.653187        -0.434952         0.297303
 C         0.249715        -0.238544         0.051321
 C        -0.916831        -0.342315        -0.147013
 C        -2.397809        -0.169146        -0.355972
 C        -2.794521         1.109180        -1.198925
 O        -2.853606         0.082894         1.074939
 C        -3.099820        -1.166003         1.654569
 C        -4.089279        -0.825265         2.783402
 O        -2.822179        -2.265023         1.177584
 H         2.028263         0.488062         0.514355
 H         1.828857        -1.149922         1.074119
 H         2.170173        -0.699537        -0.752372
 H        -2.956518        -1.109671        -0.544116
 H        -2.356697         1.945548        -0.750256
 H        -2.541205         0.958841        -2.306142
 H        -3.859438         1.367764        -1.004389
 H        -3.576784        -1.103523         3.715648
 H        -4.354288         0.219691         2.559904
 H        -4.900055        -1.538713         2.761405
