19
Iteration:  1448
 C         1.804570        -0.074827         0.110363
 C         0.343410        -0.055448        -0.013653
 C        -0.860467        -0.023804        -0.070865
 C        -2.288696        -0.055514        -0.257120
 C        -2.683738         0.979410        -1.314563
 O        -3.097232        -0.028092         1.034035
 C        -3.266584        -1.307341         1.674870
 C        -3.935241        -1.139758         3.006464
 O        -3.078455        -2.386851         1.193760
 H         2.265772         0.801392        -0.069618
 H         2.131280        -0.597958         1.041938
 H         2.111063        -0.775514        -0.763736
 H        -2.508238        -1.096414        -0.626626
 H        -2.382768         1.973180        -1.016072
 H        -2.182650         0.598653        -2.202027
 H        -3.729110         0.993589        -1.456822
 H        -3.403534        -1.600180         3.832055
 H        -4.055247        -0.145656         3.389479
 H        -4.889783        -1.721442         2.926639
