19
Iteration:  3989charge 0 multiplicity 1
 C         1.665025        -0.775556         0.163210
 C         0.274253        -0.403318        -0.089246
 C        -0.926501        -0.430814        -0.102775
 C        -2.281064        -0.102746        -0.341711
 C        -2.441910         1.251249        -1.148412
 O        -2.938516         0.153782         1.014404
 C        -3.376960        -1.050293         1.596097
 C        -3.500582        -0.876452         3.170393
 O        -3.580320        -2.053933         1.002816
 H         2.030335        -1.719397        -0.360705
 H         2.323440         0.134839         0.045773
 H         1.578729        -0.935679         1.264256
 H        -2.814401        -0.998338        -0.714463
 H        -3.469209         1.377932        -1.492050
 H        -2.326020         2.069957        -0.500011
 H        -1.613452         1.364782        -1.860175
 H        -2.634412        -1.329581         3.718135
 H        -3.430901         0.192152         3.474798
 H        -4.403391        -1.430345         3.486851
