19
Iteration:  3118
 C         1.685884        -0.862012         0.465961
 C         0.332131        -0.421171        -0.032110
 C        -0.806604        -0.091339        -0.298770
 C        -2.286025        -0.066416        -0.445298
 C        -2.791183         1.093900        -1.310499
 O        -2.968596         0.113158         0.866349
 C        -3.229895        -1.016449         1.699940
 C        -4.017517        -0.688182         2.874917
 O        -2.931193        -2.232791         1.440454
 H         1.688637        -1.250650         1.509179
 H         1.942066        -1.682833        -0.192107
 H         2.511635        -0.062803         0.515186
 H        -2.738316        -1.018125        -0.974589
 H        -3.996422         1.089350        -1.454029
 H        -2.665620         2.043621        -0.797910
 H        -2.312516         1.078388        -2.312816
 H        -3.610864         0.012272         3.660687
 H        -5.048808        -0.302988         2.631653
 H        -4.093876        -1.702914         3.376864
