19
Iteration:  4888
 C         1.893342        -0.741736        -0.459629
 C         0.520843        -0.619822        -0.232163
 C        -0.699122        -0.498700        -0.086027
 C        -2.133107        -0.222232        -0.138225
 C        -2.430012         1.233044        -0.770558
 O        -2.771889        -0.132665         1.122678
 C        -3.578452        -1.003079         1.735894
 C        -3.975786        -0.353118         3.092251
 O        -3.855761        -2.046761         1.130804
 H         2.174523        -0.511086        -1.505870
 H         2.591752        -0.132858         0.160757
 H         2.298167        -1.715845        -0.391074
 H        -2.695383        -0.914324        -0.867819
 H        -3.475303         1.197346        -0.946407
 H        -2.159806         2.027894        -0.108719
 H        -1.967839         1.580088        -1.763243
 H        -4.378854        -1.137518         3.661519
 H        -3.031864         0.086872         3.354803
 H        -4.597221         0.506613         2.981464
