19
Iteration:   374charge 0 multiplicity 1
 C         1.592610        -0.205793         0.267223
 C         0.190982         0.148104         0.113665
 C        -1.020469         0.036475        -0.070470
 C        -2.460694        -0.091846        -0.397959
 C        -3.153612         1.008405        -1.141717
 O        -3.170407        -0.146362         0.899230
 C        -2.995706        -1.279589         1.609994
 C        -3.921845        -1.388217         2.757299
 O        -2.182231        -2.140891         1.284998
 H         2.304366         0.694795         0.595951
 H         1.691000        -0.879883         1.100587
 H         2.083063        -0.656995        -0.502092
 H        -2.583283        -1.195272        -0.751437
 H        -3.431305         1.761135        -0.450786
 H        -2.593198         1.400499        -2.005126
 H        -4.123797         0.707819        -1.462421
 H        -3.408341        -1.760975         3.709277
 H        -4.408606        -0.399051         2.967442
 H        -4.727826        -2.135144         2.515088
