19
Iteration:  2028charge 0 multiplicity 1
 C         1.802727        -0.203662         0.082796
 C         0.364933         0.059625         0.025771
 C        -0.794895        -0.158178        -0.000936
 C        -2.237836        -0.322633        -0.240662
 C        -2.609845         0.808129        -1.246325
 O        -2.897592        -0.095970         1.031919
 C        -3.352967        -1.160506         1.639817
 C        -3.914088        -0.803410         3.012317
 O        -3.436049        -2.259809         1.047597
 H         2.394395         0.556244        -0.549946
 H         2.309578        -0.164396         1.081244
 H         1.950547        -1.214708        -0.258421
 H        -2.513402        -1.317793        -0.432033
 H        -2.318599         1.690136        -0.553808
 H        -1.960044         0.693879        -2.045477
 H        -3.664787         0.794606        -1.525138
 H        -4.704023        -1.485027         3.285338
 H        -3.224618        -1.120700         3.775714
 H        -4.130129         0.289817         2.995540
