19
Iteration:  1962charge 0 multiplicity 1
 C         1.859076         0.140943         0.091180
 C         0.539647        -0.246664        -0.115201
 C        -0.683951        -0.220130        -0.012803
 C        -2.064778        -0.319694        -0.159733
 C        -2.658857         0.573739        -1.216154
 O        -2.798604        -0.050007         1.153253
 C        -3.461467        -1.175837         1.595475
 C        -3.918450        -0.860914         3.059841
 O        -3.779367        -2.136391         0.967902
 H         2.152187         0.674322        -0.920096
 H         1.993847         0.894179         0.943541
 H         2.562093        -0.687606         0.252122
 H        -2.314795        -1.299799        -0.483618
 H        -2.223878         1.634657        -1.041826
 H        -2.503352         0.314838        -2.241035
 H        -3.737512         0.838419        -1.021179
 H        -4.838150        -0.293989         2.984529
 H        -4.166949        -1.874070         3.433807
 H        -3.114921        -0.260000         3.565385
