19
Iteration:  4551
 C         2.114287        -0.301117        -0.205686
 C         0.599071        -0.488984        -0.243823
 C        -0.594944        -0.640118        -0.210422
 C        -2.134807        -0.538046        -0.189782
 C        -2.455927         0.598255        -1.096510
 O        -2.490517        -0.407366         1.223561
 C        -3.702873        -0.748278         1.722370
 C        -3.692567        -0.827065         3.237209
 O        -4.631525        -1.029032         1.070458
 H         2.508107         0.405434         0.479257
 H         2.594824        -1.278031        -0.099180
 H         2.351586         0.086733        -1.215709
 H        -2.543563        -1.437709        -0.581003
 H        -3.549749         0.877319        -1.171420
 H        -1.930611         1.496971        -0.733389
 H        -2.037532         0.326480        -2.157732
 H        -2.734744        -1.123373         3.685265
 H        -3.875822         0.142108         3.729302
 H        -4.546194        -1.488648         3.524053
