19
Iteration:  4583
 C         1.885926        -0.063706        -0.101682
 C         0.516320        -0.638614        -0.385096
 C        -0.619089        -1.000534        -0.236294
 C        -2.037750        -0.591693        -0.168871
 C        -2.362999         0.613882        -0.900992
 O        -2.449874        -0.333883         1.192442
 C        -3.681707        -0.719622         1.679047
 C        -3.574992        -0.800163         3.173637
 O        -4.655446        -0.975318         1.005145
 H         2.016018         0.829362         0.488443
 H         2.486345        -0.949324         0.255893
 H         2.186415         0.092035        -1.158411
 H        -2.682251        -1.345327        -0.488982
 H        -3.496142         0.808776        -0.952548
 H        -1.794307         1.445507        -0.432071
 H        -1.938472         0.621564        -2.003300
 H        -2.547703        -1.051676         3.496512
 H        -3.899363         0.158898         3.647850
 H        -4.281865        -1.581819         3.583932
