19
Iteration:  1223
 C         1.611090        -0.328783         0.439778
 C         0.203467        -0.130680         0.041035
 C        -1.005143        -0.014696        -0.041007
 C        -2.402586        -0.055446        -0.465756
 C        -2.988384         1.220855        -1.132695
 O        -3.363473        -0.262833         0.622359
 C        -3.094928        -1.240415         1.615017
 C        -3.678455        -1.071894         2.980665
 O        -2.405268        -2.241474         1.317001
 H         1.942665        -1.256549        -0.261827
 H         2.255310         0.513196         0.059246
 H         1.749821        -0.555980         1.416107
 H        -2.458383        -0.807529        -1.222441
 H        -3.063594         2.117840        -0.633357
 H        -2.304518         1.407406        -2.038899
 H        -3.878666         0.887549        -1.517701
 H        -3.718995        -0.021183         3.374675
 H        -4.758248        -1.317357         3.074293
 H        -3.289173        -1.789196         3.790353
