19
Iteration:  1746charge 0 multiplicity 1
 C         1.982297         0.677882        -0.352523
 C         0.748301        -0.017150         0.041074
 C        -0.361120        -0.426075         0.144832
 C        -1.834207        -0.644105        -0.013713
 C        -2.606813         0.248172        -1.096639
 O        -2.583613        -0.389976         1.286987
 C        -3.694670        -1.089817         1.626206
 C        -3.948147        -1.145475         3.008128
 O        -4.491810        -1.545650         0.793961
 H         2.874512         0.187197        -0.456310
 H         1.716631         0.971836        -1.350397
 H         1.934032         1.732592         0.242809
 H        -2.072194        -1.744017        -0.207009
 H        -2.436862         1.294838        -0.732316
 H        -2.251631         0.119104        -2.047107
 H        -3.736555         0.091552        -1.106721
 H        -4.602184        -1.914568         3.373467
 H        -3.074240        -0.974940         3.671931
 H        -4.683150        -0.371251         3.353994
