19
Iteration:  4776
 C         2.044380        -0.657382        -0.513643
 C         0.626574        -0.502437        -0.313616
 C        -0.525092        -0.389590         0.061136
 C        -2.075988        -0.376135        -0.020842
 C        -2.691503         0.650364        -0.923182
 O        -2.551531        -0.117401         1.416841
 C        -3.655702        -0.807125         1.660183
 C        -3.868434        -0.671266         3.153398
 O        -4.245636        -1.401490         0.806245
 H         2.473564         0.217616        -1.032181
 H         2.482934        -0.904542         0.459197
 H         2.060141        -1.616398        -0.997365
 H        -2.290581        -1.441333        -0.325451
 H        -3.826560         0.405204        -0.955255
 H        -2.478084         1.679263        -0.435425
 H        -2.192787         0.648785        -1.874554
 H        -3.212329        -1.355658         3.686028
 H        -3.777514         0.367625         3.447269
 H        -4.846624        -0.969148         3.539730
