19
Iteration:  4705charge 0 multiplicity 1
 C         2.136674        -0.503051        -0.276563
 C         0.689018        -0.364521        -0.333377
 C        -0.530225        -0.401758        -0.249618
 C        -2.009980        -0.463139        -0.142159
 C        -2.781670         0.609612        -0.857293
 O        -2.377757        -0.704501         1.291514
 C        -3.642515        -0.872207         1.667861
 C        -3.792197        -0.543086         3.163615
 O        -4.605654        -1.041731         0.980680
 H         2.568003         0.444366        -0.161164
 H         2.341195        -0.975605         0.679008
 H         2.517930        -1.191123        -1.016994
 H        -2.217751        -1.360949        -0.641026
 H        -3.798054         0.322327        -0.941464
 H        -2.738621         1.593502        -0.455611
 H        -2.294975         0.702811        -1.883368
 H        -2.891676        -0.705050         3.769897
 H        -4.197497         0.483573         3.332615
 H        -4.500452        -1.240740         3.611234
