19
Iteration:  3631
 C         2.109363        -0.068070         0.068532
 C         0.671405         0.010680        -0.084869
 C        -0.495179        -0.252041        -0.198764
 C        -1.844711        -0.688232        -0.197471
 C        -2.772663         0.001933        -1.192326
 O        -2.464195        -0.508352         1.230908
 C        -3.750668        -0.846765         1.601132
 C        -3.619364        -0.731987         3.079269
 O        -4.753639        -1.088361         0.951199
 H         2.716419        -0.671306        -0.615223
 H         2.743370         0.891361         0.243083
 H         2.272221        -0.701826         1.011159
 H        -1.986589        -1.727694        -0.407801
 H        -3.784547        -0.500702        -1.297303
 H        -2.793486         0.947829        -0.855112
 H        -2.449243         0.068670        -2.180637
 H        -4.450698        -0.161042         3.480673
 H        -3.779144        -1.651247         3.572998
 H        -2.708845        -0.361350         3.543496
