19
Iteration:  2823charge 0 multiplicity 1
 C         2.030272         0.222830        -0.405306
 C         0.781994        -0.211903         0.009142
 C        -0.412462        -0.273976         0.190249
 C        -1.841429        -0.641345         0.083397
 C        -2.502453         0.262584        -1.068434
 O        -2.483107        -0.630507         1.364549
 C        -3.834415        -0.942404         1.537672
 C        -4.033300        -0.818987         3.052021
 O        -4.607247        -1.217263         0.683626
 H         2.199884         1.228381        -0.367511
 H         2.880260        -0.219135         0.203197
 H         2.241423        -0.278071        -1.410140
 H        -1.908002        -1.744100        -0.137455
 H        -3.296452        -0.291392        -1.437162
 H        -3.165657         1.047757        -0.622554
 H        -1.684825         0.546917        -1.816115
 H        -4.797958        -1.492984         3.422564
 H        -3.075385        -0.888386         3.548191
 H        -4.326905         0.167829         3.386515
