19
Iteration:  3130
 C         1.622919        -0.887534         0.458971
 C         0.343458        -0.442249        -0.042973
 C        -0.823186        -0.147086        -0.265274
 C        -2.315548        -0.078344        -0.523073
 C        -2.813702         1.198559        -1.256606
 O        -2.999078         0.061580         0.841116
 C        -3.203639        -1.076312         1.617630
 C        -4.058326        -0.680254         2.903608
 O        -2.808900        -2.167247         1.511370
 H         1.446465        -1.306214         1.513024
 H         2.157245        -1.621202        -0.119335
 H         2.294653        -0.005987         0.434253
 H        -2.583075        -1.180498        -0.832199
 H        -3.968678         1.191130        -1.668979
 H        -2.441511         2.025940        -0.632941
 H        -2.180009         1.320696        -2.135161
 H        -3.563033         0.183328         3.389790
 H        -5.032004        -0.334219         2.450071
 H        -4.305042        -1.557891         3.575552
