19
Iteration:  1206charge 0 multiplicity 1
 C         1.608332        -0.317001         0.364854
 C         0.207494        -0.055393         0.094653
 C        -0.993402        -0.015593        -0.101209
 C        -2.369328        -0.135949        -0.462577
 C        -2.977185         1.105281        -1.132334
 O        -3.257951        -0.221460         0.767702
 C        -3.101314        -1.222336         1.576479
 C        -3.729941        -1.016067         2.984723
 O        -2.490837        -2.262258         1.215298
 H         1.943997        -1.241233         0.034912
 H         2.257613         0.545222         0.007638
 H         1.601751        -0.220355         1.554176
 H        -2.525165        -1.077374        -1.092178
 H        -3.195932         1.633962        -0.114315
 H        -2.325832         1.748557        -1.701482
 H        -3.950549         0.861620        -1.726433
 H        -3.331444        -0.076031         3.335265
 H        -4.833994        -0.968127         2.891564
 H        -3.476143        -1.925918         3.498528
