19
Iteration:  2063charge 0 multiplicity 1
 C         1.858919        -0.343571         0.224080
 C         0.481045        -0.101954        -0.137934
 C        -0.769550        -0.102443        -0.103330
 C        -2.198731        -0.121128        -0.215386
 C        -2.778147         0.980182        -1.249110
 O        -2.976094        -0.099380         0.955959
 C        -3.350794        -1.210685         1.636264
 C        -3.989740        -0.806721         2.978050
 O        -3.296101        -2.362220         1.263378
 H         2.393592         0.511946        -0.123706
 H         1.977208        -0.495074         1.281783
 H         2.358946        -1.141219        -0.453108
 H        -2.407643        -1.052523        -0.709276
 H        -2.951741         2.039569        -0.828758
 H        -2.070974         1.206691        -2.046424
 H        -3.711079         0.755443        -1.698918
 H        -4.280927        -1.828200         3.282521
 H        -3.186950        -0.265144         3.470972
 H        -4.896982        -0.215221         3.048481
