19
Iteration:  1562charge 0 multiplicity 1
 C         2.060554         0.354377         0.073818
 C         0.532389         0.187053        -0.127085
 C        -0.614491        -0.327970        -0.302029
 C        -2.138914        -0.390271        -0.283262
 C        -2.756341         0.807893        -0.927662
 O        -2.594466        -0.378372         1.104142
 C        -3.453629        -1.329355         1.641640
 C        -4.002041        -0.897144         3.000572
 O        -3.956597        -2.255652         1.104884
 H         2.178980         1.046639         1.010582
 H         2.559976        -0.557494         0.234044
 H         2.681146         0.845788        -0.723058
 H        -2.536130        -1.303786        -0.735034
 H        -2.582155         1.837497        -0.470268
 H        -2.620677         0.732001        -1.982421
 H        -3.914119         0.886698        -0.869458
 H        -3.706959         0.103902         3.266881
 H        -5.042321        -0.924730         2.685519
 H        -3.830626        -1.734835         3.645399
