19
Iteration:  4745
 C         1.975802        -0.619960        -0.451207
 C         0.653637        -0.432189        -0.017709
 C        -0.508930        -0.312363        -0.157785
 C        -1.929100        -0.391345        -0.148234
 C        -2.779088         0.617176        -0.922675
 O        -2.356017        -0.398623         1.358105
 C        -3.649471        -0.818233         1.670435
 C        -3.848616        -0.599804         3.145198
 O        -4.466339        -1.280763         0.907453
 H         2.483780         0.223207        -1.053420
 H         2.672040        -1.084157         0.343586
 H         1.886106        -1.383784        -1.277639
 H        -2.322604        -1.468085        -0.415201
 H        -3.751640         0.152779        -1.225385
 H        -2.875091         1.550362        -0.314172
 H        -2.244650         0.863072        -1.792919
 H        -3.009326        -1.049624         3.652024
 H        -3.937865         0.476317         3.319102
 H        -4.823695        -1.046782         3.428004
