19
Iteration:  1766
 C         1.928914         0.740660        -0.280349
 C         0.731691        -0.148385        -0.109512
 C        -0.467468        -0.378433         0.136871
 C        -1.914887        -0.645812        -0.032143
 C        -2.587961         0.235419        -0.963396
 O        -2.469104        -0.450858         1.307492
 C        -3.715129        -1.031156         1.553735
 C        -3.969266        -1.006048         3.104530
 O        -4.419227        -1.590096         0.682695
 H         2.717324         0.075550        -0.376483
 H         1.975786         1.377050        -1.218290
 H         2.031694         1.410120         0.668677
 H        -2.159574        -1.709883        -0.193958
 H        -2.591631         1.285272        -0.831504
 H        -2.251595         0.121665        -2.024695
 H        -3.645820        -0.168194        -1.022298
 H        -4.065260        -2.084887         3.397387
 H        -3.048036        -0.598652         3.628811
 H        -4.930849        -0.583888         3.531306
