19
Iteration:   848
 C         1.824132         1.041488        -0.215452
 C         0.562064         0.308006        -0.093408
 C        -0.464493        -0.346456         0.026209
 C        -1.858514        -0.611712         0.027979
 C        -2.736535         0.278567        -0.848599
 O        -2.360286        -0.658631         1.375138
 C        -3.581014        -1.289727         1.504811
 C        -3.997393        -1.181086         2.945351
 O        -4.279210        -1.775770         0.657094
 H         1.571876         2.174237        -0.541942
 H         2.395271         1.113538         0.742595
 H         2.439865         0.690373        -0.997908
 H        -1.997956        -1.618958        -0.227396
 H        -2.694228         1.336368        -0.769974
 H        -2.366130         0.087106        -1.865349
 H        -3.743770        -0.029864        -0.686604
 H        -3.491960        -0.574490         3.750793
 H        -5.012823        -0.714880         2.892858
 H        -3.947804        -2.251651         3.343360
