19
Iteration:  3138charge 0 multiplicity 1
 C         1.586013        -0.881371         0.434382
 C         0.297092        -0.468445        -0.046472
 C        -0.870586        -0.199605        -0.262618
 C        -2.326216        -0.067507        -0.485803
 C        -2.736946         1.223013        -1.234596
 O        -3.023944        -0.016880         0.829469
 C        -3.211035        -1.029914         1.651750
 C        -4.090551        -0.644514         2.844587
 O        -2.693842        -2.160748         1.505105
 H         1.426337        -1.220868         1.437344
 H         2.080262        -1.671523        -0.139599
 H         2.247941         0.044477         0.717663
 H        -2.509210        -0.999201        -1.103936
 H        -3.818625         1.132326        -1.462101
 H        -2.639464         2.028780        -0.532911
 H        -2.266315         1.506016        -2.189853
 H        -3.499689         0.236913         3.249506
 H        -5.099939        -0.323532         2.534321
 H        -4.286218        -1.410837         3.641361
