19
Iteration:  1758charge 0 multiplicity 1
 C         1.929562         0.723885        -0.339366
 C         0.757767        -0.113942        -0.045359
 C        -0.404523        -0.418648         0.157306
 C        -1.857832        -0.655325        -0.000011
 C        -2.629219         0.251188        -1.045160
 O        -2.535647        -0.416541         1.289907
 C        -3.720794        -1.027503         1.555199
 C        -3.964846        -1.076160         3.130932
 O        -4.453860        -1.578782         0.720223
 H         2.875246         0.202592        -0.272672
 H         1.850267         1.263612        -1.225236
 H         2.098194         1.485224         0.562802
 H        -1.958737        -1.739085        -0.331772
 H        -2.514520         1.365506        -0.787662
 H        -2.300222         0.162138        -1.993662
 H        -3.685098        -0.120701        -0.949296
 H        -4.138105        -2.110252         3.295676
 H        -3.055879        -0.784479         3.653384
 H        -4.774994        -0.338668         3.245516
