19
Iteration:  1866charge 0 multiplicity 1
 C         2.044045         0.412346         0.051352
 C         0.645012        -0.088794        -0.138932
 C        -0.548666        -0.091137        -0.029657
 C        -1.971213        -0.473718        -0.225280
 C        -2.947648         0.357173        -0.923965
 O        -2.389940        -0.617634         1.265711
 C        -3.644765        -1.230864         1.567934
 C        -3.883971        -0.572666         2.934396
 O        -4.230309        -1.928828         0.816207
 H         2.516396         0.077836        -0.750579
 H         2.093830         1.478310         0.124704
 H         2.529932         0.004362         1.057621
 H        -1.894370        -1.518968        -0.576027
 H        -3.145182         1.442631        -0.582215
 H        -2.860852         0.439515        -1.934203
 H        -4.003665         0.044105        -0.914177
 H        -3.108990         0.149917         3.195655
 H        -4.903654        -0.068482         2.855524
 H        -3.715808        -1.408277         3.698628
