19
Iteration:  1023charge 0 multiplicity 1
 C         1.940399         0.494922         0.033124
 C         0.509818         0.201467        -0.141126
 C        -0.673932        -0.063839        -0.010291
 C        -2.103674        -0.335868        -0.133387
 C        -2.850495         0.666416        -1.034447
 O        -2.799467        -0.229941         1.156732
 C        -3.462509        -1.397262         1.554362
 C        -3.875461        -1.108910         2.930122
 O        -3.669345        -2.388237         0.941973
 H         2.142640         0.373528         1.183915
 H         2.468785        -0.228622        -0.485170
 H         2.318740         1.452675        -0.266745
 H        -2.280007        -1.311914        -0.521333
 H        -2.654957         1.621332        -0.518455
 H        -2.501393         0.728927        -2.004089
 H        -3.955193         0.505910        -1.133821
 H        -4.869787        -1.481450         3.155874
 H        -3.173496        -1.546985         3.654165
 H        -3.905242        -0.056983         3.290919
