19
Iteration:  1988
 C         2.005389         0.114757         0.001909
 C         0.564487        -0.322616         0.193081
 C        -0.669898        -0.249501        -0.005752
 C        -2.187018        -0.273689        -0.226881
 C        -2.774717         0.709923        -1.306647
 O        -2.899331        -0.019457         1.061900
 C        -3.522135        -1.114625         1.621488
 C        -3.911610        -0.914890         3.063642
 O        -3.623754        -2.191490         1.038806
 H         2.136784         0.666841        -0.841905
 H         2.347826         0.582291         0.879347
 H         2.673976        -0.890775        -0.123248
 H        -2.449150        -1.309079        -0.637226
 H        -2.257197         1.720073        -1.166246
 H        -2.559646         0.494805        -2.383521
 H        -3.778898         1.025686        -1.207101
 H        -5.040423        -0.767565         3.148292
 H        -3.508539        -1.851953         3.514379
 H        -3.355681        -0.029817         3.442875
