19
Iteration:   942
 C         1.967810         0.707352        -0.188694
 C         0.579457         0.320352         0.021589
 C        -0.600278         0.013427        -0.001313
 C        -1.912932        -0.555057        -0.101235
 C        -2.850696         0.286207        -0.906895
 O        -2.514410        -0.439571         1.369603
 C        -3.603650        -1.284469         1.531141
 C        -3.998272        -1.174581         3.035963
 O        -4.033370        -2.017193         0.659782
 H         2.333624         1.545783         0.300558
 H         2.811418         0.001416        -0.024614
 H         2.066264         1.118170        -1.343059
 H        -1.839290        -1.659908        -0.547308
 H        -3.188884         1.145741        -0.281606
 H        -2.271513         0.874647        -1.782269
 H        -3.722635        -0.319479        -1.206746
 H        -4.847131        -0.475490         3.215849
 H        -4.585650        -2.052546         3.290616
 H        -3.071972        -0.971794         3.543899
