19
Iteration:  4638
 C         1.837604        -0.094759        -0.171114
 C         0.468335        -0.641850        -0.083593
 C        -0.671755        -0.921817        -0.464819
 C        -2.060556        -0.607713        -0.234740
 C        -2.574443         0.760038        -0.889727
 O        -2.198272        -0.669956         1.247401
 C        -3.531440        -0.838367         1.717747
 C        -3.722505        -0.617119         3.185179
 O        -4.530630        -0.880450         0.955779
 H         1.780169         0.895838         0.226633
 H         2.534010        -0.544301         0.565499
 H         2.388542        -0.365413        -1.046867
 H        -2.794987        -1.274433        -0.486888
 H        -3.633287         1.076750        -0.719887
 H        -1.919035         1.584624        -0.642577
 H        -2.298893         0.594745        -1.982699
 H        -2.795262        -0.832920         3.709653
 H        -4.255461         0.355626         3.327621
 H        -4.398452        -1.480094         3.407743
