19
Iteration:  3238charge 0 multiplicity 1
 C         1.513766        -0.860246         0.314530
 C         0.134209        -0.632200        -0.064084
 C        -1.058833        -0.513117        -0.154294
 C        -2.449862        -0.095665        -0.522266
 C        -2.295220         1.318315        -1.039039
 O        -3.447482        -0.085839         0.587714
 C        -3.154310        -0.960381         1.695780
 C        -4.191340        -0.828066         2.827934
 O        -2.207524        -1.708706         1.633115
 H         1.531784        -1.757088         0.963981
 H         2.260977        -0.974032        -0.444421
 H         1.775869        -0.043769         1.065261
 H        -2.690876        -0.866543        -1.253371
 H        -3.285000         1.771955        -1.122144
 H        -1.956011         1.949895        -0.324388
 H        -1.830456         1.311318        -1.954738
 H        -4.446810         0.237304         2.887155
 H        -5.172438        -1.200822         2.481063
 H        -3.768683        -1.192481         3.784125
