19
Iteration:  2391
 C         1.548828        -0.548954         0.450335
 C         0.264549        -0.463104        -0.202709
 C        -0.948179        -0.248490        -0.231831
 C        -2.387550        -0.005333        -0.314256
 C        -2.709313         1.128315        -1.145891
 O        -2.916839         0.137440         1.066909
 C        -3.167117        -1.118572         1.625084
 C        -3.959303        -0.950551         2.872669
 O        -2.784277        -2.189468         1.137991
 H         1.702250        -1.491534         1.172469
 H         2.460856        -0.573985        -0.119017
 H         1.583915         0.349558         1.132270
 H        -3.052999        -0.885551        -0.646637
 H        -2.081407         1.964786        -1.164920
 H        -2.673890         0.708360        -2.239683
 H        -3.833480         1.474915        -1.079910
 H        -4.960762        -0.727916         2.475563
 H        -3.936120        -1.885848         3.475785
 H        -3.768113         0.044655         3.390960
