19
Iteration:    81charge 0 multiplicity 1
 C         1.750146         0.464499         0.270893
 C         0.319711         0.510340         0.069934
 C        -0.807993         0.086078        -0.168389
 C        -2.206112        -0.226964        -0.233251
 C        -3.082176         0.730615        -0.991756
 O        -2.710479        -0.354664         1.076847
 C        -3.243529        -1.503279         1.540519
 C        -3.764817        -1.276090         2.924409
 O        -3.312440        -2.476886         0.843070
 H         2.017055        -0.371382         0.796091
 H         2.346508         0.485257        -0.663231
 H         2.169456         1.318812         0.974948
 H        -2.382413        -1.222238        -0.672834
 H        -2.997456         1.809402        -0.692907
 H        -2.774928         0.838582        -2.131508
 H        -4.172022         0.445184        -0.974493
 H        -4.638668        -1.878705         3.177241
 H        -3.014045        -1.662083         3.622615
 H        -3.857777        -0.231183         3.207207
