19
Iteration:  1567
 C         2.035278         0.371332         0.062762
 C         0.507460         0.212693        -0.146696
 C        -0.592590        -0.331320        -0.286258
 C        -2.096113        -0.412612        -0.229442
 C        -2.786731         0.787664        -0.935404
 O        -2.568125        -0.384362         1.130151
 C        -3.455131        -1.306501         1.650412
 C        -3.987916        -0.873299         2.987345
 O        -3.979193        -2.270482         1.036430
 H         2.210915         0.918228         1.011883
 H         2.421569        -0.729535         0.194350
 H         2.687571         0.862340        -0.661439
 H        -2.524715        -1.293169        -0.746667
 H        -2.530014         1.736540        -0.500072
 H        -2.590844         0.884656        -2.051010
 H        -3.859382         0.735885        -0.812661
 H        -3.821404         0.156366         3.391523
 H        -5.090799        -0.877671         2.819606
 H        -3.736234        -1.648318         3.771936
