19
Iteration:  1008charge 0 multiplicity 1
 C         1.905595         0.514165         0.027310
 C         0.497155         0.184765        -0.208721
 C        -0.691899        -0.024233        -0.081622
 C        -2.102864        -0.376327        -0.080548
 C        -2.763971         0.597164        -0.969795
 O        -2.724106        -0.267463         1.201504
 C        -3.507253        -1.321779         1.555427
 C        -3.959817        -1.128803         3.032544
 O        -3.672795        -2.303043         0.852795
 H         2.076749         0.652161         1.050588
 H         2.663387        -0.240114        -0.316590
 H         2.029049         1.576855        -0.533693
 H        -2.231018        -1.514348        -0.366093
 H        -3.091544         1.564687        -0.553622
 H        -1.944474         0.740872        -1.814052
 H        -3.698608         0.100229        -1.262887
 H        -5.025836        -1.392428         3.152271
 H        -3.391795        -1.929663         3.465506
 H        -3.659912        -0.115846         3.330231
