19
Iteration:  1975charge 0 multiplicity 1
 C         1.962782         0.126817         0.037275
 C         0.564313        -0.348998         0.059185
 C        -0.692580        -0.194886        -0.041583
 C        -2.141270        -0.290530        -0.188071
 C        -2.697443         0.691317        -1.218609
 O        -2.872482        -0.063560         1.039708
 C        -3.497891        -1.115955         1.642723
 C        -3.909281        -0.912630         3.080808
 O        -3.698325        -2.152968         0.970442
 H         2.130728         0.751598        -0.851908
 H         2.070517         0.826369         0.873996
 H         2.846200        -0.659304         0.065827
 H        -2.397604        -1.326677        -0.414776
 H        -2.166681         1.749329        -1.347391
 H        -2.585426         0.131747        -2.091179
 H        -3.764652         0.626898        -1.037074
 H        -4.969259        -0.519465         3.118683
 H        -3.916568        -1.791399         3.730505
 H        -3.283228        -0.128822         3.648325
