19
Iteration:  3085charge 0 multiplicity 1
 C         1.755893        -0.752223         0.381400
 C         0.358549        -0.355137         0.099964
 C        -0.829197        -0.111838        -0.128082
 C        -2.331129        -0.152174        -0.321467
 C        -2.808699         0.847223        -1.334078
 O        -2.821548         0.169726         1.038822
 C        -3.314736        -1.041075         1.615116
 C        -3.930420        -0.634052         2.946968
 O        -3.148561        -2.143009         1.071467
 H         1.962643        -1.060130         1.417389
 H         1.912910        -1.619549        -0.245884
 H         2.524329        -0.010429         0.009379
 H        -2.503486        -1.193436        -0.710230
 H        -3.990922         0.775402        -1.364048
 H        -2.439392         1.837795        -1.105501
 H        -2.568627         0.646972        -2.384495
 H        -3.135959        -0.079735         3.522269
 H        -4.885418        -0.091648         2.811509
 H        -4.244476        -1.566084         3.488562
