19
Iteration:  4841charge 0 multiplicity 1
 C         1.890807        -0.663158        -0.567584
 C         0.539407        -0.545647        -0.154050
 C        -0.661773        -0.524931        -0.056651
 C        -2.065367        -0.178170        -0.132955
 C        -2.400137         0.981165        -0.976303
 O        -2.585179        -0.080996         1.321768
 C        -3.586176        -0.898482         1.714263
 C        -4.110376        -0.595686         3.246830
 O        -3.997767        -1.811210         1.013224
 H         2.137017        -0.137085        -1.475518
 H         2.605381        -0.358456         0.180875
 H         2.180581        -1.692762        -0.796751
 H        -2.759569        -0.958715        -0.441499
 H        -3.477975         1.390005        -0.854914
 H        -1.541629         1.734270        -1.016831
 H        -2.338223         0.613212        -2.004557
 H        -4.081445        -1.566164         3.737627
 H        -3.618346         0.288847         3.619134
 H        -5.160651        -0.272321         3.144220
