19
Iteration:  1458charge 0 multiplicity 1
 C         1.832248        -0.060750         0.065897
 C         0.350851         0.030967         0.045060
 C        -0.867997        -0.103870        -0.097915
 C        -2.334621        -0.190656        -0.324393
 C        -2.656300         0.929289        -1.243187
 O        -3.019829         0.015582         1.034448
 C        -3.343904        -1.203793         1.659169
 C        -3.944316        -1.186854         3.053609
 O        -3.133598        -2.351692         1.181224
 H         2.226986         0.895157         0.015584
 H         2.279914        -0.512978         1.020654
 H         2.210709        -0.574028        -0.832538
 H        -2.593797        -1.191565        -0.709791
 H        -2.211920         1.837649        -0.823358
 H        -2.100719         0.813040        -2.120665
 H        -3.702209         0.959034        -1.474273
 H        -3.110938        -1.678078         3.567455
 H        -4.259057        -0.175051         3.286850
 H        -4.814514        -1.903391         3.046693
