19
Iteration:   313
 C         1.501617        -0.120811         0.349424
 C         0.036501        -0.089255         0.118579
 C        -1.138146         0.077025        -0.110038
 C        -2.455996         0.020781        -0.413758
 C        -3.016762         1.163294        -1.262457
 O        -3.251439        -0.202838         0.783749
 C        -2.917345        -1.321159         1.606756
 C        -3.854634        -1.479680         2.910572
 O        -2.061345        -2.169038         1.383558
 H         1.864844         0.713530        -0.203125
 H         1.595682        -0.040753         1.472361
 H         1.935256        -1.223877        -0.002460
 H        -2.643424        -0.726942        -1.161483
 H        -2.878354         2.253567        -0.788433
 H        -2.379085         1.112732        -2.152089
 H        -4.182753         0.966694        -1.321034
 H        -3.666692        -2.503318         3.223366
 H        -3.643709        -0.598863         3.532617
 H        -4.926332        -1.342563         2.657976
