19
Iteration:  4752charge 0 multiplicity 1
 C         2.020726        -0.640644        -0.480541
 C         0.682445        -0.434439        -0.045958
 C        -0.548240        -0.329602        -0.140813
 C        -2.032254        -0.395070        -0.015240
 C        -2.755637         0.630027        -0.925266
 O        -2.347273        -0.328597         1.352554
 C        -3.627096        -0.812926         1.644895
 C        -3.843406        -0.621360         3.136572
 O        -4.463593        -1.325085         0.848349
 H         2.382068         0.249813        -0.948034
 H         2.667382        -1.045269         0.260555
 H         1.795019        -1.482689        -1.129746
 H        -2.194518        -1.397671        -0.429785
 H        -3.767909         0.143939        -1.136887
 H        -2.964841         1.628132        -0.412823
 H        -2.175393         0.831555        -1.852903
 H        -3.038979        -1.063240         3.760140
 H        -3.837020         0.467332         3.270394
 H        -4.760299        -0.943034         3.646532
