19
Iteration:  2734
 C         2.071888         0.082350        -0.179136
 C         0.625913        -0.253423        -0.175728
 C        -0.556440        -0.297403         0.044988
 C        -1.963929        -0.490908        -0.063534
 C        -2.561272         0.378752        -1.060548
 O        -2.447589        -0.277029         1.392777
 C        -3.662788        -0.975083         1.672350
 C        -4.176300        -0.848687         3.030558
 O        -4.257844        -1.573690         0.741541
 H         2.139429         0.969134        -0.836842
 H         2.373607         0.211319         0.903067
 H         2.748702        -0.679249        -0.730991
 H        -2.104371        -1.594521        -0.262596
 H        -3.693135         0.502923        -0.875395
 H        -2.123505         1.400322        -1.189416
 H        -2.505609        -0.133089        -2.041627
 H        -4.979552        -0.137176         2.957640
 H        -4.596399        -1.846333         3.251336
 H        -3.403653        -0.555406         3.773567
