19
Iteration:   930
 C         1.993441         0.766028        -0.219677
 C         0.593721         0.367769        -0.053334
 C        -0.562461         0.035623         0.091046
 C        -1.925219        -0.543327         0.019567
 C        -2.859418         0.255750        -0.869527
 O        -2.524589        -0.570240         1.301814
 C        -3.625392        -1.301328         1.519120
 C        -3.975914        -1.148575         3.010090
 O        -4.078811        -1.959152         0.615464
 H         2.149737         1.614680         0.336864
 H         2.598880        -0.135290         0.143977
 H         2.209718         0.898337        -1.358946
 H        -1.816932        -1.662391        -0.278848
 H        -3.057865         1.199687        -0.294016
 H        -2.357579         0.460500        -1.877597
 H        -3.808704        -0.257562        -1.111173
 H        -4.391170        -0.146000         3.055515
 H        -4.525022        -1.981323         3.433940
 H        -3.116969        -1.045795         3.623340
