19
Iteration:  1043
 C         1.934032         0.376285         0.049863
 C         0.486583         0.238351         0.081454
 C        -0.700340        -0.068477        -0.021900
 C        -2.136257        -0.271084        -0.287806
 C        -2.887125         0.814628        -1.123431
 O        -2.783360        -0.305411         1.053718
 C        -3.405570        -1.407290         1.580002
 C        -3.900480        -1.106776         3.042767
 O        -3.597537        -2.424665         1.003658
 H         2.461258         0.231844         1.030979
 H         2.439290        -0.134756        -0.705560
 H         2.215961         1.495835        -0.165354
 H        -2.368615        -1.224233        -0.859948
 H        -2.484555         1.850308        -0.988018
 H        -2.989461         0.524189        -2.183115
 H        -3.975623         0.682551        -0.847203
 H        -4.683530        -1.800427         3.317115
 H        -3.067411        -1.176067         3.735530
 H        -4.240911        -0.031195         3.216031
