19
Iteration:  1456charge 0 multiplicity 1
 C         1.829445        -0.077102         0.073471
 C         0.352943         0.014264         0.031457
 C        -0.874410        -0.086917        -0.095988
 C        -2.332064        -0.158347        -0.320062
 C        -2.655367         0.937003        -1.260427
 O        -3.036388         0.013180         1.033897
 C        -3.331101        -1.210742         1.678322
 C        -3.947397        -1.180846         3.043181
 O        -3.121571        -2.374474         1.180635
 H         2.283271         0.977975        -0.043282
 H         2.265687        -0.542788         1.054362
 H         2.140028        -0.553415        -0.759627
 H        -2.531493        -1.135805        -0.677901
 H        -2.196320         1.884972        -0.828001
 H        -2.107140         0.743789        -2.106707
 H        -3.774298         0.934774        -1.466687
 H        -3.134589        -1.703570         3.622909
 H        -4.209784        -0.122553         3.289105
 H        -4.811493        -1.887651         3.009292
