19
Iteration:   157
 C         1.669722         0.378082         0.325218
 C         0.255809         0.161199         0.061422
 C        -0.939691        -0.071743        -0.038292
 C        -2.365110        -0.253989        -0.272510
 C        -2.974264         0.920686        -1.116914
 O        -3.144343        -0.218606         0.966951
 C        -3.199774        -1.426291         1.548587
 C        -3.638390        -1.316765         3.020634
 O        -2.788480        -2.335273         0.876482
 H         2.241580        -0.426556         0.062911
 H         2.096043         1.273161        -0.136423
 H         1.824282         0.469392         1.450162
 H        -2.599423        -1.174795        -0.795916
 H        -2.606869         1.913492        -0.795609
 H        -2.521170         0.870886        -2.205419
 H        -4.048805         0.862953        -1.355944
 H        -4.509477        -1.913172         3.348832
 H        -2.850416        -1.773819         3.619748
 H        -3.890201        -0.282319         3.285113
