19
Iteration:  1247
 C         1.544272        -0.372243         0.389566
 C         0.119175        -0.209888         0.160754
 C        -1.070034         0.019627        -0.065693
 C        -2.514615        -0.034042        -0.474784
 C        -2.874282         1.303902        -1.208006
 O        -3.411823        -0.284169         0.744251
 C        -3.057244        -1.310653         1.591194
 C        -3.693572        -1.053280         2.819696
 O        -2.224466        -2.215151         1.387759
 H         2.043726        -1.079648        -0.344513
 H         2.194009         0.630387         0.339617
 H         1.674939        -0.858066         1.327484
 H        -2.643029        -0.941650        -1.090836
 H        -2.364243         2.169541        -0.861340
 H        -2.569763         1.212326        -2.276226
 H        -3.948086         1.414715        -1.215030
 H        -4.111938        -0.018627         2.918482
 H        -4.570084        -1.705560         3.134066
 H        -3.051487        -1.301171         3.723629
