19
Iteration:  2743
 C         2.035935         0.072752        -0.230292
 C         0.670870        -0.217628        -0.153681
 C        -0.522819        -0.314251         0.052013
 C        -1.973567        -0.550442        -0.021621
 C        -2.553579         0.372186        -1.133208
 O        -2.491817        -0.311566         1.428723
 C        -3.637908        -0.902631         1.577206
 C        -4.172807        -0.898712         3.094951
 O        -4.257808        -1.523154         0.752917
 H         2.169489         1.108441        -0.727999
 H         2.451924         0.258991         0.725041
 H         2.650602        -0.617176        -0.717132
 H        -2.284341        -1.605190        -0.107714
 H        -3.710654         0.411240        -1.198069
 H        -2.022856         1.304039        -0.962391
 H        -2.231279         0.055037        -2.104311
 H        -5.117121        -0.307682         3.061229
 H        -4.580566        -1.900324         3.318858
 H        -3.591019        -0.414389         3.906030
