19
Iteration:   620
 C         1.918638         0.480746         0.173416
 C         0.454693         0.281531         0.008266
 C        -0.737212         0.179042        -0.212747
 C        -2.136203        -0.275137        -0.245429
 C        -3.055632         0.565218        -1.068489
 O        -2.696287        -0.250694         1.094946
 C        -3.333854        -1.408526         1.570245
 C        -3.805387        -1.226629         3.007926
 O        -3.612597        -2.426760         1.004112
 H         2.565718        -0.350121         0.133091
 H         2.319020         1.217162        -0.625623
 H         2.165687         0.989772         1.107727
 H        -2.096452        -1.375423        -0.586355
 H        -3.124980         1.546987        -0.650864
 H        -2.611280         0.792355        -2.101481
 H        -4.006172         0.049477        -1.187532
 H        -4.815075        -0.832741         2.868855
 H        -3.917111        -2.194646         3.387580
 H        -3.293675        -0.505616         3.589180
