19
Iteration:  4263charge 0 multiplicity 1
 C         1.517361        -1.230053        -0.061868
 C         0.159570        -0.726057        -0.059873
 C        -0.963361        -0.254516        -0.158363
 C        -2.318641         0.141733        -0.345236
 C        -2.527554         1.426374        -1.115112
 O        -2.962704         0.202771         1.042910
 C        -3.221168        -1.051582         1.673074
 C        -4.043431        -0.698372         2.976678
 O        -2.756251        -2.101630         1.346980
 H         1.425102        -2.214546         0.399778
 H         1.971720        -1.268118        -1.058949
 H         2.099349        -0.701546         0.660456
 H        -2.723392        -0.701487        -0.931255
 H        -3.542856         1.708536        -0.990031
 H        -2.047387         2.305771        -0.548352
 H        -2.289340         1.354872        -2.190495
 H        -5.123317        -0.892667         2.894239
 H        -3.637010        -1.248997         3.847837
 H        -3.943047         0.418094         3.094353
