19
Iteration:  3811
 C         2.077839         0.052729        -0.542040
 C         0.764170        -0.325637        -0.115945
 C        -0.372995        -0.627102         0.041446
 C        -1.840011        -0.633337         0.108740
 C        -2.548304         0.538136        -0.647976
 O        -2.471176        -0.546671         1.395297
 C        -3.818288        -0.896325         1.548170
 C        -4.126151        -0.462733         2.935275
 O        -4.511890        -1.496286         0.703139
 H         2.029835        -0.489545        -1.572847
 H         2.014255         1.131580        -0.763027
 H         2.930465        -0.191878         0.146796
 H        -2.234774        -1.499279        -0.411729
 H        -3.537304         0.288912        -0.969992
 H        -2.617104         1.526179        -0.102614
 H        -2.053350         0.759459        -1.576850
 H        -5.187155        -0.501552         3.257438
 H        -3.567804        -1.031385         3.707802
 H        -3.794695         0.599514         3.103633
