19
Iteration:  2629
 C         1.994242        -0.180665         0.251143
 C         0.579659        -0.118205        -0.146981
 C        -0.636442        -0.184476        -0.289459
 C        -2.094183        -0.302511        -0.293346
 C        -2.782838         0.790092        -0.971999
 O        -2.503850        -0.360547         1.147268
 C        -3.530124        -1.164223         1.597036
 C        -4.035225        -0.555843         2.944255
 O        -3.946363        -2.117222         1.011187
 H         2.598528         0.037930        -0.649535
 H         2.272716         0.661920         0.909983
 H         2.132203        -1.160529         0.727949
 H        -2.434625        -1.272497        -0.657333
 H        -2.615580         1.703861        -0.487762
 H        -2.533940         0.751287        -2.101871
 H        -3.893228         0.486556        -0.873724
 H        -3.339928         0.148191         3.392133
 H        -4.991340         0.001019         2.836822
 H        -4.030348        -1.471491         3.593592
