19
Iteration:   113charge 0 multiplicity 1
 C         1.785044         0.420297         0.299012
 C         0.318863         0.243725         0.134621
 C        -0.872922         0.240632        -0.168840
 C        -2.296516        -0.077747        -0.351855
 C        -3.018348         0.898661        -1.208308
 O        -2.874839        -0.299939         1.035225
 C        -3.207733        -1.482559         1.594490
 C        -3.718913        -1.401303         3.015763
 O        -3.174891        -2.555958         1.013944
 H         2.241661        -0.473609         0.437935
 H         2.192451         0.926294        -0.591081
 H         1.927949         1.102830         1.211214
 H        -2.369640        -1.087877        -0.774440
 H        -2.576857         1.903340        -1.145125
 H        -2.976865         0.422093        -2.331804
 H        -4.103087         0.803202        -0.964393
 H        -4.605464        -2.039174         3.082153
 H        -2.908362        -1.919647         3.527048
 H        -3.989398        -0.392703         3.301509
