19
Iteration:  1248charge 0 multiplicity 1
 C         1.542330        -0.374654         0.386517
 C         0.111469        -0.212040         0.162348
 C        -1.076230         0.020132        -0.068241
 C        -2.510939        -0.040730        -0.473267
 C        -2.868486         1.303292        -1.207804
 O        -3.406955        -0.280673         0.746458
 C        -3.046328        -1.317641         1.586393
 C        -3.699835        -1.050591         2.827919
 O        -2.221039        -2.208343         1.385298
 H         1.977243        -1.021934        -0.336900
 H         2.181361         0.630880         0.338850
 H         1.683009        -0.887894         1.366551
 H        -2.648391        -0.946102        -1.135732
 H        -2.311106         2.189521        -0.858722
 H        -2.589662         1.196336        -2.251346
 H        -3.982443         1.420222        -1.206273
 H        -4.136110        -0.030497         2.880827
 H        -4.561782        -1.720869         3.141074
 H        -3.069294        -1.284407         3.707457
