19
Iteration:  4808charge 0 multiplicity 1
 C         2.029339        -0.635052        -0.522690
 C         0.593499        -0.629969        -0.419163
 C        -0.555018        -0.414465        -0.071742
 C        -2.076189        -0.261973         0.011740
 C        -2.491824         0.752923        -0.982626
 O        -2.589708         0.035586         1.419316
 C        -3.576964        -0.762729         1.770866
 C        -4.105721        -0.785169         3.117430
 O        -4.180596        -1.590688         1.011758
 H         2.569903         0.045456        -1.191038
 H         2.449509        -0.513319         0.466867
 H         2.298258        -1.609013        -0.921066
 H        -2.554351        -1.221282        -0.305075
 H        -3.582672         1.173856        -1.050666
 H        -1.881097         1.727438        -0.818730
 H        -2.315092         0.292091        -1.943759
 H        -3.614817        -1.581111         3.694587
 H        -3.798885         0.038536         3.751806
 H        -5.162745        -0.950639         2.906292
