19
Iteration:  3468charge 0 multiplicity 1
 C         1.935867        -0.333372         0.052710
 C         0.489070        -0.285825         0.033057
 C        -0.730743        -0.524020        -0.063807
 C        -2.283596        -0.355385        -0.365151
 C        -2.439891         0.898419        -1.214751
 O        -2.811380        -0.109977         0.922086
 C        -3.464917        -1.014044         1.648288
 C        -3.876855        -0.406214         2.968274
 O        -3.813475        -2.145279         1.348791
 H         2.271516        -1.191705        -0.392068
 H         2.412169         0.485396        -0.334218
 H         2.118147        -0.574001         1.078840
 H        -2.593956        -1.337045        -0.628552
 H        -3.605080         0.895132        -1.376939
 H        -2.101298         1.740190        -0.684814
 H        -2.099424         0.746345        -2.212047
 H        -4.770189         0.227513         2.757290
 H        -4.173038        -1.207822         3.641117
 H        -3.117156         0.199977         3.438819
