19
Iteration:  4388
 C         1.939241        -0.685431        -0.464207
 C         0.509081        -0.597418        -0.142421
 C        -0.690344        -0.596711        -0.075899
 C        -2.143493        -0.233892        -0.195690
 C        -2.345161         1.181950        -0.860914
 O        -2.796777         0.052869         1.159024
 C        -3.548163        -0.964067         1.708388
 C        -4.060100        -0.493148         3.035660
 O        -3.855659        -2.077620         1.181288
 H         2.662279        -0.881396         0.358023
 H         2.122077        -1.342120        -1.357861
 H         2.099123         0.468823        -0.648774
 H        -2.697191        -1.137895        -0.771994
 H        -3.346898         1.419541        -0.434903
 H        -1.712073         1.921157        -0.479309
 H        -2.322242         1.252372        -1.934520
 H        -4.121554        -1.288093         3.767080
 H        -3.306049         0.220876         3.410927
 H        -4.980789         0.080233         2.916477
