19
Iteration:  3605
 C         2.108964        -0.058249         0.261454
 C         0.686755        -0.208672        -0.072088
 C        -0.518398        -0.226096        -0.246333
 C        -1.993071        -0.607437        -0.244892
 C        -2.953296         0.122905        -1.290412
 O        -2.399741        -0.505208         1.108082
 C        -3.653518        -0.835349         1.638074
 C        -3.657016        -0.670831         3.159725
 O        -4.552546        -1.216366         0.976481
 H         2.734639        -0.583551        -0.502817
 H         2.573049         0.900182         0.271447
 H         2.430264        -0.584339         1.133171
 H        -2.250905        -1.665393        -0.621102
 H        -3.934596        -0.234549        -1.160756
 H        -2.793541         1.287894        -1.161403
 H        -2.794288        -0.055655        -2.387581
 H        -4.482297        -0.047047         3.552946
 H        -3.845898        -1.654769         3.692397
 H        -2.762284        -0.329526         3.677957
