19
Iteration:   212charge 0 multiplicity 1
 C         1.497533         0.266829         0.363742
 C         0.110405        -0.044926         0.146721
 C        -1.038053        -0.049862        -0.260672
 C        -2.420002        -0.079511        -0.495358
 C        -2.873205         1.213640        -1.122885
 O        -3.183228        -0.260086         0.827418
 C        -3.022750        -1.461215         1.593188
 C        -3.730775        -1.290530         3.045847
 O        -2.469967        -2.479144         1.230095
 H         2.095270        -0.087541        -0.564281
 H         1.639857         1.344207         0.520531
 H         1.809676        -0.277378         1.374849
 H        -2.782514        -0.865531        -1.168454
 H        -3.168529         2.031139        -0.444306
 H        -2.073866         1.499072        -1.936427
 H        -3.810246         0.938481        -1.644008
 H        -4.509723        -2.080803         3.184204
 H        -2.881244        -1.382966         3.739569
 H        -4.223900        -0.302561         3.086752
