19
Iteration:  4788
 C         1.987117        -0.674856        -0.490181
 C         0.547187        -0.537379        -0.404958
 C        -0.557888        -0.399516         0.048532
 C        -1.928171        -0.363011         0.037405
 C        -2.604533         0.689833        -0.928577
 O        -2.513863        -0.017909         1.328938
 C        -3.658702        -0.748275         1.709333
 C        -3.995317        -0.743168         3.217717
 O        -4.238002        -1.503959         0.841204
 H         2.572881         0.096062        -1.083647
 H         2.463787        -0.626290         0.524316
 H         2.377852        -1.504040        -1.061714
 H        -2.458774        -1.358165        -0.200202
 H        -3.740095         0.595998        -0.882992
 H        -2.388937         1.760744        -0.597740
 H        -2.416336         0.573483        -1.986648
 H        -3.241677        -1.381257         3.662408
 H        -3.696535         0.226930         3.614239
 H        -5.030026        -1.033093         3.341526
