19
Iteration:   223charge 0 multiplicity 1
 C         1.508063         0.247637         0.420718
 C         0.162603        -0.060700         0.048275
 C        -0.994998        -0.033162        -0.315322
 C        -2.440407        -0.100347        -0.469292
 C        -2.948445         1.226321        -1.079623
 O        -3.280511        -0.330015         0.856422
 C        -3.063863        -1.441168         1.625571
 C        -3.709451        -1.255061         2.911201
 O        -2.419660        -2.424038         1.272206
 H         2.310154        -0.062706        -0.431891
 H         1.721335         1.279515         0.728674
 H         1.905263        -0.537883         1.259053
 H        -2.542749        -1.033547        -1.028716
 H        -2.911767         2.051757        -0.309237
 H        -2.146781         1.573445        -1.877980
 H        -3.916088         1.114138        -1.616701
 H        -4.354263        -2.149343         3.126376
 H        -2.927971        -1.272503         3.696882
 H        -4.181693        -0.258154         3.010976
