19
Iteration:  1880charge 0 multiplicity 1
 C         2.023854         0.336382         0.055241
 C         0.624774        -0.035492        -0.063795
 C        -0.552599        -0.132126        -0.045673
 C        -1.959001        -0.496286        -0.234023
 C        -2.998576         0.461384        -1.010609
 O        -2.404202        -0.579585         1.201386
 C        -3.581078        -1.119173         1.540164
 C        -3.938046        -0.619183         2.957501
 O        -4.183062        -2.013867         0.916847
 H         2.696355         0.230648        -0.835366
 H         2.067376         1.390116         0.246897
 H         2.576151        -0.189853         0.939049
 H        -2.106484        -1.475877        -0.783423
 H        -2.957410         1.398949        -0.463822
 H        -2.625243         0.627649        -2.034165
 H        -3.859096        -0.122736        -0.950649
 H        -3.363063         0.332154         3.059509
 H        -4.977588        -0.443555         3.184148
 H        -3.591535        -1.351657         3.677731
