19
Iteration:  3983
 C         1.683115        -0.770764         0.168492
 C         0.327712        -0.390857        -0.104951
 C        -0.906601        -0.401151        -0.107166
 C        -2.338500        -0.049971        -0.348252
 C        -2.459454         1.199949        -1.136153
 O        -2.894252         0.119403         1.019689
 C        -3.382115        -0.975717         1.631549
 C        -3.526236        -0.906186         3.137843
 O        -3.616967        -2.059934         1.016694
 H         2.024820        -1.584550        -0.404141
 H         2.321767         0.054599        -0.073968
 H         1.812845        -1.037178         1.227569
 H        -2.730989        -1.077240        -0.527647
 H        -3.389771         1.342135        -1.722445
 H        -2.354050         2.077035        -0.358481
 H        -1.649750         1.213482        -1.902100
 H        -2.767363        -1.505186         3.645999
 H        -3.501639         0.110455         3.505160
 H        -4.475172        -1.337247         3.442090
