19
Iteration:  2409charge 0 multiplicity 1
 C         1.626128        -0.535432         0.430389
 C         0.327169        -0.370279        -0.141652
 C        -0.892256        -0.270259        -0.178106
 C        -2.296440        -0.074610        -0.330356
 C        -2.778172         1.189912        -1.168949
 O        -2.970256         0.033954         0.978641
 C        -3.255720        -1.119248         1.564114
 C        -3.953240        -0.863162         2.932980
 O        -2.896992        -2.234006         1.164018
 H         1.692706        -1.622119         0.796624
 H         2.412889        -0.420369        -0.350262
 H         1.806331         0.126396         1.219710
 H        -2.657790        -1.017407        -0.808145
 H        -2.258548         2.097839        -0.798688
 H        -2.665567         1.091032        -2.249534
 H        -3.773055         1.478275        -0.940551
 H        -5.067120        -0.961177         2.960173
 H        -3.486967        -1.488653         3.709395
 H        -3.540810         0.093635         3.190503
