19
Iteration:  1325
 C         1.448722        -0.366808         0.482985
 C         0.182083        -0.353262        -0.215593
 C        -1.007622        -0.072296        -0.229447
 C        -2.438118        -0.012809        -0.465392
 C        -2.895936         1.190655        -1.202315
 O        -3.162208        -0.085601         0.935249
 C        -3.018315        -1.202803         1.672874
 C        -3.926949        -1.213579         2.909825
 O        -2.278797        -2.098528         1.311446
 H         2.209322        -0.102098        -0.228616
 H         1.379814         0.545884         1.287579
 H         1.690184        -1.306117         1.070255
 H        -2.702635        -0.977623        -0.941507
 H        -2.642344         2.032040        -0.478381
 H        -2.400205         1.277375        -2.079245
 H        -4.022396         1.147925        -1.380960
 H        -4.921295        -1.558237         2.504374
 H        -3.622138        -1.861358         3.799272
 H        -4.105296        -0.218171         3.377795
