19
Iteration:  3972
 C         1.786219        -0.743990         0.151151
 C         0.352853        -0.419433        -0.090692
 C        -0.857738        -0.272114        -0.159607
 C        -2.348257        -0.109971        -0.269957
 C        -2.523845         1.135866        -1.154346
 O        -2.815923         0.100452         1.073413
 C        -3.406943        -1.002345         1.627152
 C        -3.618972        -0.928734         3.081233
 O        -3.679296        -1.986952         1.082768
 H         1.945797        -1.516452        -0.563737
 H         2.476460         0.013933        -0.145759
 H         2.129950        -1.128654         1.111976
 H        -2.942441        -0.816964        -0.913345
 H        -3.434874         1.152369        -1.770354
 H        -2.366978         2.128352        -0.530346
 H        -1.598386         1.102478        -1.785435
 H        -2.960138        -1.735631         3.400844
 H        -3.396930         0.000995         3.589214
 H        -4.641723        -1.253358         3.209781
