19
Iteration:   405charge 0 multiplicity 1
 C         1.593145        -0.079058         0.227401
 C         0.162887         0.014032         0.110388
 C        -0.993722         0.239963        -0.215691
 C        -2.422991         0.041224        -0.374269
 C        -3.101319         1.106832        -1.212513
 O        -3.058294        -0.299776         0.934383
 C        -3.011840        -1.410311         1.641030
 C        -3.973019        -1.323830         2.774466
 O        -2.317928        -2.341633         1.431103
 H         1.887746         0.803061         0.878418
 H         1.813492        -0.985605         0.780536
 H         2.164746        -0.090379        -0.704752
 H        -2.522775        -0.950665        -0.834836
 H        -2.937409         2.098962        -0.846960
 H        -2.645766         1.108324        -2.257082
 H        -4.146493         0.866270        -1.260559
 H        -3.452016        -1.327874         3.765499
 H        -4.648405        -0.471677         2.683220
 H        -4.597382        -2.197296         2.866801
