19
Iteration:  2564
 C         1.835385        -0.161409         0.183580
 C         0.407400        -0.350762         0.101797
 C        -0.791645        -0.287541        -0.142431
 C        -2.267371        -0.210162        -0.251515
 C        -2.616204         0.816062        -1.266259
 O        -2.648227        -0.001375         1.191488
 C        -3.450260        -1.102522         1.649603
 C        -3.895287        -0.851243         2.999267
 O        -3.620427        -2.110491         0.942837
 H         2.277547        -0.625190        -0.829914
 H         2.048251         0.917956         0.203902
 H         2.370881        -0.669805         0.992835
 H        -2.705050        -1.135805        -0.650661
 H        -1.933039         1.576935        -1.403006
 H        -2.717454         0.460513        -2.372720
 H        -3.661113         1.230958        -1.007253
 H        -3.164582        -1.312870         3.666572
 H        -4.116369         0.225298         3.267573
 H        -4.862631        -1.445113         3.020641
