19
Iteration:  4804charge 0 multiplicity 1
 C         2.030450        -0.660241        -0.524227
 C         0.592882        -0.603835        -0.435626
 C        -0.551722        -0.412668        -0.045637
 C        -2.082709        -0.264600         0.017775
 C        -2.499718         0.737255        -0.956314
 O        -2.565801         0.040889         1.392274
 C        -3.593455        -0.767044         1.728494
 C        -4.080874        -0.778799         3.123108
 O        -4.193683        -1.569131         1.005015
 H         2.408239         0.194212        -1.127818
 H         2.372809        -0.510400         0.509969
 H         2.365831        -1.682509        -0.881189
 H        -2.415134        -1.215276        -0.300536
 H        -3.548175         0.997185        -0.909338
 H        -2.003179         1.661472        -0.796745
 H        -2.289180         0.274034        -1.943082
 H        -3.604903        -1.624914         3.715348
 H        -3.868942         0.067260         3.826285
 H        -5.154093        -1.024572         2.987818
