19
Iteration:  2703charge 0 multiplicity 1
 C         2.222187         0.000254        -0.064314
 C         0.678508        -0.183833        -0.105612
 C        -0.543519        -0.319105        -0.074455
 C        -2.001976        -0.490814        -0.132581
 C        -2.870062         0.507142        -0.919837
 O        -2.519577        -0.300493         1.345326
 C        -3.728019        -1.028276         1.570533
 C        -4.039914        -0.639991         2.969715
 O        -4.161404        -1.806742         0.754718
 H         2.401011         0.790110        -0.745522
 H         2.596523         0.462364         0.959072
 H         2.833123        -1.001536        -0.324361
 H        -2.153182        -1.512147        -0.571485
 H        -3.604970         0.984438        -0.301520
 H        -2.202179         1.367927        -1.242683
 H        -3.189033        -0.070258        -1.810114
 H        -4.388700         0.362129         2.910607
 H        -4.864519        -1.317627         3.222701
 H        -3.247313        -0.832084         3.699966
