19
Iteration:  1418charge 0 multiplicity 1
 C         1.767247        -0.232234         0.191241
 C         0.291142        -0.169060        -0.037396
 C        -0.888502         0.124999         0.103218
 C        -2.302292        -0.049847        -0.284012
 C        -2.924861         0.982120        -1.171205
 O        -3.083787        -0.089963         0.949286
 C        -3.270903        -1.312203         1.591361
 C        -3.918926        -0.989315         2.894167
 O        -2.774679        -2.397120         1.165237
 H         2.358579         0.692587        -0.220470
 H         2.125776        -0.469760         1.140849
 H         2.088455        -1.197050        -0.480572
 H        -2.418780        -1.079963        -0.748625
 H        -2.636065         1.977046        -0.872100
 H        -2.535334         0.884823        -2.359611
 H        -4.002467         0.975567        -1.215496
 H        -3.744364        -1.717029         3.675762
 H        -3.609323        -0.014957         3.249721
 H        -5.011116        -0.854764         2.873942
