19
Iteration:  3783
 C         1.935546         0.195092        -0.602164
 C         0.709100        -0.320241        -0.069981
 C        -0.404533        -0.653854         0.201300
 C        -1.917237        -0.761088        -0.022808
 C        -2.323067         0.491167        -0.849820
 O        -2.432959        -0.704026         1.390967
 C        -3.751357        -0.866224         1.646312
 C        -4.214115        -0.549510         2.983484
 O        -4.491763        -1.260048         0.785763
 H         1.963269        -0.196754        -1.566108
 H         1.708466         1.280140        -0.678263
 H         2.866680         0.089944        -0.036830
 H        -2.218176        -1.786881        -0.462724
 H        -3.403936         0.865648        -1.160779
 H        -1.903569         1.352787        -0.381307
 H        -1.679300         0.346466        -1.776978
 H        -5.293149        -0.545518         3.028862
 H        -3.920928        -1.179430         3.805527
 H        -3.848566         0.428876         3.297097
