19
Iteration:   306charge 0 multiplicity 1
 C         1.471219        -0.152244         0.330523
 C         0.026847        -0.043983         0.178200
 C        -1.108077         0.081213        -0.161117
 C        -2.476858        -0.034758        -0.433657
 C        -2.993665         1.219743        -1.235953
 O        -3.246311        -0.232515         0.811234
 C        -2.936142        -1.389955         1.607035
 C        -3.834413        -1.415804         2.857506
 O        -2.062087        -2.175275         1.388367
 H         1.836359         0.700944        -0.231344
 H         1.614716         0.160640         1.380869
 H         2.079760        -1.016688         0.153195
 H        -2.678756        -0.918127        -1.118266
 H        -2.837026         2.179049        -0.834540
 H        -2.592105         1.143231        -2.248316
 H        -4.092184         1.105271        -1.270039
 H        -3.805795        -2.415852         3.287874
 H        -3.561770        -0.689306         3.628422
 H        -4.882005        -1.235910         2.670991
