19
Iteration:  4425
 C         1.937489        -0.723826        -0.406636
 C         0.546636        -0.586206        -0.302932
 C        -0.643281        -0.351784        -0.111135
 C        -2.060255        -0.202693        -0.130462
 C        -2.636646         0.922931        -0.943119
 O        -2.458641        -0.132096         1.406049
 C        -3.576455        -0.867749         1.722049
 C        -4.114369        -0.532236         3.093940
 O        -3.984297        -1.818652         0.967483
 H         2.361638        -0.835944         0.678591
 H         2.459740        -1.505752        -1.032487
 H         2.421918         0.147960        -0.903025
 H        -2.525185        -1.122255        -0.469525
 H        -3.693881         0.855833        -1.109999
 H        -2.499958         1.839321        -0.274316
 H        -2.142965         1.017000        -1.942731
 H        -3.994645        -1.333879         3.839446
 H        -3.619801         0.381503         3.432810
 H        -5.217771        -0.466859         3.070656
