19
Iteration:   719charge 0 multiplicity 1
 C         1.932292         0.752496         0.035280
 C         0.573429         0.416299        -0.030925
 C        -0.572959        -0.025354        -0.052801
 C        -1.980685        -0.372899        -0.121799
 C        -2.963190         0.314939        -1.038447
 O        -2.462049        -0.544244         1.208735
 C        -3.472869        -1.374767         1.566648
 C        -3.813813        -1.201815         3.026764
 O        -4.158701        -2.054187         0.785200
 H         2.458029         0.667263        -0.875702
 H         2.149380         1.858912         0.320422
 H         2.450970         0.224045         0.744181
 H        -2.039944        -1.480880        -0.431108
 H        -2.994321         1.416691        -1.082292
 H        -2.807526        -0.101806        -2.060858
 H        -3.936611        -0.091157        -0.794602
 H        -4.154003        -2.126648         3.346379
 H        -3.097887        -0.765570         3.646884
 H        -4.624671        -0.477199         2.984273
