19
Iteration:   751
 C         1.913259         0.918647        -0.048678
 C         0.537554         0.392847        -0.068463
 C        -0.587252        -0.087219        -0.040323
 C        -1.940007        -0.659916        -0.114561
 C        -2.690411         0.348228        -0.979828
 O        -2.565469        -0.630270         1.193025
 C        -3.635324        -1.291013         1.536178
 C        -3.800604        -1.154311         3.084921
 O        -4.196070        -1.995342         0.779587
 H         2.266091         1.195744        -1.102284
 H         1.939257         1.916765         0.603518
 H         2.558588         0.233968         0.300457
 H        -2.009717        -1.732049        -0.488614
 H        -2.577379         1.327617        -0.533483
 H        -2.245215         0.389869        -1.998060
 H        -3.753518         0.267018        -0.972477
 H        -3.605357        -2.124184         3.495954
 H        -3.222269        -0.389890         3.581020
 H        -4.844396        -1.033603         3.434394
