19
Iteration:  1396charge 0 multiplicity 1
 C         1.709586        -0.373037         0.194084
 C         0.291399        -0.016663         0.201145
 C        -0.894243        -0.009558        -0.136829
 C        -2.310265        -0.122612        -0.360461
 C        -3.035494         0.999309        -1.026853
 O        -3.089595        -0.099185         0.872340
 C        -3.146040        -1.191398         1.632910
 C        -3.908129        -1.010771         2.803872
 O        -2.679865        -2.282697         1.201382
 H         2.243653         0.537825        -0.307695
 H         2.086679        -0.360766         1.178174
 H         2.037250        -1.426955        -0.296377
 H        -2.474036        -1.155850        -0.805067
 H        -2.956959         1.903511        -0.439909
 H        -2.614841         1.160579        -2.199505
 H        -4.079661         0.754732        -1.130048
 H        -4.052555        -1.957738         3.294112
 H        -3.516020        -0.353240         3.561771
 H        -4.921742        -0.631856         2.591397
