19
Iteration:  1372charge 0 multiplicity 1
 C         1.638733        -0.376642         0.303424
 C         0.227674        -0.056429         0.140194
 C        -0.917225        -0.108217        -0.257486
 C        -2.393574        -0.082722        -0.456664
 C        -3.070920         1.167750        -1.184928
 O        -2.990980        -0.034547         0.941191
 C        -3.093862        -1.288934         1.645741
 C        -4.012919        -1.088153         2.882409
 O        -2.475540        -2.268927         1.280126
 H         2.268700         0.142303        -0.370668
 H         1.975849        -0.203142         1.384523
 H         1.750044        -1.585205         0.137869
 H        -2.712754        -1.107097        -0.835468
 H        -3.246239         1.981685        -0.423050
 H        -2.471142         1.517103        -2.127210
 H        -4.036641         0.837232        -1.576479
 H        -4.555641        -1.977922         3.178024
 H        -3.371470        -0.842408         3.710704
 H        -4.738323        -0.242609         2.828201
