19
Iteration:  4139
 C         1.115748        -1.420466         0.585530
 C        -0.058395        -0.698118         0.004205
 C        -1.061749        -0.225109        -0.441775
 C        -2.439943         0.260744        -0.430949
 C        -2.753000         1.536203        -1.115179
 O        -3.009433         0.207405         0.872652
 C        -2.988063        -0.955837         1.577981
 C        -3.517639        -0.894510         2.957913
 O        -2.469570        -2.002512         1.241814
 H         0.872262        -2.438806         0.262289
 H         2.029141        -1.108777         0.129446
 H         1.245401        -1.401163         1.610224
 H        -2.858250        -0.591144        -0.977031
 H        -3.684862         1.383618        -1.791117
 H        -2.760283         2.313310        -0.390500
 H        -2.020005         1.805140        -1.939831
 H        -3.836317         0.119029         3.217169
 H        -4.242994        -1.711419         3.096656
 H        -2.718997        -1.201684         3.610235
