19
Iteration:  4862
 C         1.852223        -0.723152        -0.539277
 C         0.515216        -0.519600        -0.130840
 C        -0.701651        -0.488416         0.037254
 C        -2.169058        -0.291808        -0.100775
 C        -2.399847         1.051513        -0.853472
 O        -2.642407        -0.031500         1.231458
 C        -3.513442        -0.930775         1.683802
 C        -3.943883        -0.500848         2.963318
 O        -3.998185        -1.937522         1.121939
 H         2.026258        -0.262834        -1.503007
 H         2.556938        -0.201551         0.077496
 H         2.290937        -1.702320        -0.783676
 H        -2.766530        -1.091772        -0.518160
 H        -3.495515         1.386528        -0.633438
 H        -1.625231         1.774393        -0.404296
 H        -2.293921         1.215524        -1.920154
 H        -4.092352        -1.445547         3.546920
 H        -3.237512         0.271850         3.312316
 H        -4.898144         0.055842         2.786970
