19
Iteration:  4777charge 0 multiplicity 1
 C         2.034004        -0.653554        -0.511194
 C         0.626196        -0.510284        -0.326509
 C        -0.520157        -0.391746         0.064081
 C        -2.069588        -0.375862        -0.018693
 C        -2.685860         0.654052        -0.923841
 O        -2.550439        -0.107517         1.413198
 C        -3.662997        -0.806459         1.652858
 C        -3.879263        -0.679015         3.160727
 O        -4.238799        -1.405342         0.812710
 H         2.494438         0.226069        -1.040306
 H         2.483800        -0.898212         0.482802
 H         2.037652        -1.616795        -0.986673
 H        -2.285871        -1.450982        -0.333881
 H        -3.798507         0.432039        -0.943544
 H        -2.484383         1.665713        -0.444084
 H        -2.217027         0.643316        -1.891665
 H        -3.210896        -1.336846         3.699512
 H        -3.747992         0.359775         3.470911
 H        -4.863114        -0.977607         3.525691
