19
Iteration:  2210charge 0 multiplicity 1
 C         1.651608        -0.572211         0.270090
 C         0.151595        -0.489659         0.074495
 C        -1.038872        -0.303071        -0.051469
 C        -2.381388        -0.032317        -0.428057
 C        -2.678837         1.311859        -1.077658
 O        -3.265909        -0.061233         0.755208
 C        -3.097513        -1.120094         1.576365
 C        -3.973694        -0.833598         2.876145
 O        -2.494586        -2.149584         1.362265
 H         1.967588        -0.064468         1.174709
 H         1.876481        -1.661482         0.396222
 H         2.218870        -0.192682        -0.593625
 H        -2.779883        -0.925670        -1.010595
 H        -2.342133         2.146995        -0.484425
 H        -2.206526         1.460591        -2.008812
 H        -3.751281         1.245320        -1.344560
 H        -3.734108         0.095182         3.354610
 H        -5.025304        -0.876199         2.582918
 H        -3.733484        -1.726770         3.495736
