19
Iteration:  1178
 C         1.630963        -0.158446         0.377338
 C         0.176237        -0.044107         0.139062
 C        -0.990569        -0.114041        -0.209602
 C        -2.449490        -0.060521        -0.325194
 C        -2.996947         1.068347        -1.237964
 O        -3.019479        -0.134442         0.962541
 C        -3.064429        -1.342099         1.572930
 C        -3.775992        -1.038588         2.894681
 O        -2.635974        -2.351233         1.169020
 H         1.922954        -1.314282         0.236829
 H         2.208897         0.431035        -0.288680
 H         1.761556         0.149771         1.355563
 H        -2.762994        -0.915166        -0.864298
 H        -3.373991         1.866953        -0.650329
 H        -2.199475         1.542366        -1.813764
 H        -3.740558         0.615125        -1.827455
 H        -3.004059        -0.396783         3.446227
 H        -4.608596        -0.330379         2.711612
 H        -4.152009        -1.951177         3.374365
