19
Iteration:  3854charge 0 multiplicity 1
 C         2.060321        -0.297721        -0.374023
 C         0.663055        -0.240355        -0.304644
 C        -0.507084        -0.314152        -0.096024
 C        -1.922107        -0.368188        -0.029359
 C        -2.671041         0.644056        -0.760644
 O        -2.343858        -0.546462         1.442814
 C        -3.631991        -0.999812         1.622661
 C        -4.299308        -0.534719         2.930222
 O        -4.281883        -1.590527         0.855569
 H         2.660311        -0.913092        -1.184216
 H         2.536247         0.719542        -0.376181
 H         2.456901        -0.692695         0.647226
 H        -2.006983        -1.415825        -0.292437
 H        -3.703641         0.388684        -0.765731
 H        -2.572113         1.631006        -0.260794
 H        -2.317474         0.671691        -1.761910
 H        -5.275158        -1.049630         2.943552
 H        -3.763382        -0.740278         3.871452
 H        -4.408589         0.585100         2.869088
