19
Iteration:  1987charge 0 multiplicity 1
 C         2.007547         0.120453        -0.002135
 C         0.556835        -0.333630         0.187319
 C        -0.663380        -0.242183        -0.009604
 C        -2.183741        -0.281414        -0.220103
 C        -2.773594         0.706856        -1.303544
 O        -2.898554        -0.023299         1.057078
 C        -3.523013        -1.121788         1.620197
 C        -3.911962        -0.915117         3.073936
 O        -3.627944        -2.180324         1.036079
 H         2.151352         0.706964        -0.845104
 H         2.342476         0.599461         0.891095
 H         2.697524        -0.884542        -0.078930
 H        -2.453867        -1.275645        -0.640119
 H        -2.240835         1.757927        -1.173310
 H        -2.560423         0.446688        -2.333253
 H        -3.786898         1.018555        -1.200422
 H        -5.037129        -0.767406         3.141631
 H        -3.567767        -1.872959         3.506770
 H        -3.331153        -0.011978         3.414814
