19
Iteration:  3636
 C         2.112262        -0.048992         0.072159
 C         0.691312         0.026455        -0.106647
 C        -0.487313        -0.238854        -0.173342
 C        -1.865845        -0.731473        -0.117306
 C        -2.741536        -0.022664        -1.208727
 O        -2.449036        -0.524434         1.201327
 C        -3.716521        -0.809948         1.609983
 C        -3.654768        -0.742293         3.078495
 O        -4.770267        -1.073222         0.952630
 H         2.467280        -0.693048        -0.792278
 H         2.636307         0.846494         0.152279
 H         2.301466        -0.691193         0.910911
 H        -2.143646        -1.789323        -0.416444
 H        -3.723093        -0.423708        -1.234648
 H        -2.942127         1.074489        -0.712074
 H        -2.265492         0.088224        -2.272806
 H        -4.507366        -0.162839         3.483925
 H        -3.816159        -1.825274         3.472047
 H        -2.673993        -0.356172         3.408519
