19
Iteration:  3339
 C         1.746172        -0.987662         0.043955
 C         0.379226        -0.471433        -0.102917
 C        -0.790883        -0.174819        -0.050559
 C        -2.280723        -0.093717        -0.333567
 C        -2.702374         1.155442        -1.187066
 O        -3.040933         0.044042         0.881417
 C        -3.211055        -0.981276         1.791963
 C        -4.497528        -0.682114         2.637235
 O        -2.604185        -1.987255         1.697562
 H         1.558793        -2.121532        -0.026170
 H         2.534527        -0.730555        -0.663437
 H         2.159421        -0.537937         0.944603
 H        -2.524453        -1.090650        -0.753166
 H        -3.809265         1.011238        -1.147473
 H        -2.468775         2.126253        -1.037718
 H        -2.491345         0.871152        -2.170924
 H        -4.998321         0.150638         2.102258
 H        -5.095958        -1.640233         2.556224
 H        -4.324225        -0.443937         3.685711
