19
Iteration:  1777charge 0 multiplicity 1
 C         1.912823         0.652620        -0.203601
 C         0.633477        -0.071191        -0.183096
 C        -0.504463        -0.347883         0.034973
 C        -1.921624        -0.682873         0.034716
 C        -2.614835         0.242793        -1.000349
 O        -2.447554        -0.513008         1.380581
 C        -3.699196        -1.043909         1.581263
 C        -3.965482        -0.960877         3.029939
 O        -4.332694        -1.571260         0.689770
 H         2.805332         0.137598        -0.352701
 H         1.764119         1.408033        -1.030553
 H         2.062606         1.271648         0.769917
 H        -2.095425        -1.695997        -0.362751
 H        -2.484175         1.220087        -0.576836
 H        -2.020991         0.045228        -1.915323
 H        -3.717014         0.037408        -1.126608
 H        -3.778391        -1.989212         3.439002
 H        -3.239964        -0.246429         3.515434
 H        -5.011222        -0.644018         3.307866
