19
Iteration:  4325
 C         1.727237        -0.787752        -0.342855
 C         0.283668        -0.705035        -0.223908
 C        -0.975411        -0.680581        -0.122583
 C        -2.291123        -0.066172        -0.224288
 C        -2.122105         1.310868        -0.879428
 O        -2.970925         0.098055         1.019801
 C        -3.444356        -0.932058         1.742416
 C        -4.088164        -0.563714         3.045258
 O        -3.277449        -2.093976         1.291759
 H         2.210456        -1.371598         0.511907
 H         2.433847        -0.903447        -1.160712
 H         1.930528         0.252481        -0.009759
 H        -3.002677        -0.614674        -0.817932
 H        -3.152368         1.570224        -1.238660
 H        -1.597685         1.980138        -0.247747
 H        -1.457483         1.234070        -1.798088
 H        -4.763399        -1.364185         3.300889
 H        -3.280836        -0.544363         3.767834
 H        -4.529689         0.442930         3.096621
