19
Iteration:   533charge 0 multiplicity 1
 C         1.760909         0.572659         0.100875
 C         0.329770         0.010549         0.023856
 C        -0.859793        -0.241619        -0.066051
 C        -2.297756        -0.274810        -0.325785
 C        -2.725027         0.975863        -1.182755
 O        -3.087695        -0.196600         0.990435
 C        -3.349908        -1.382702         1.660881
 C        -3.830119        -1.260763         3.112508
 O        -3.027841        -2.424724         1.048068
 H         2.259756         0.202607         0.924714
 H         2.345065         0.298405        -0.848240
 H         1.600226         1.736070         0.197927
 H        -2.560161        -1.292945        -0.659416
 H        -2.545836         1.813159        -0.549692
 H        -2.112215         0.995578        -2.147309
 H        -3.791598         0.915446        -1.474790
 H        -3.845429        -0.289552         3.486175
 H        -4.775387        -1.683162         3.323366
 H        -3.157462        -1.901093         3.566525
