19
Iteration:  3001charge 0 multiplicity 1
 C         1.915803        -0.254660         0.166088
 C         0.534104        -0.215297        -0.052855
 C        -0.654648        -0.394335        -0.052495
 C        -2.090025        -0.346313        -0.282334
 C        -2.487477         0.742539        -1.249399
 O        -2.734187        -0.080425         1.056543
 C        -3.573649        -1.063783         1.655796
 C        -3.746939        -0.714386         3.055542
 O        -4.160505        -1.966531         1.024107
 H         2.016732         0.293548         1.266818
 H         2.374939        -1.304654         0.153344
 H         2.481583         0.569813        -0.421610
 H        -2.517862        -1.339056        -0.591355
 H        -3.532682         0.494581        -1.670442
 H        -2.400404         1.707558        -0.736927
 H        -1.752846         0.639480        -2.002128
 H        -2.782155        -0.675345         3.500256
 H        -4.017306         0.341943         3.020133
 H        -4.441400        -1.359716         3.623433
