19
Iteration:  4627charge 0 multiplicity 1
 C         1.768991        -0.096956        -0.146463
 C         0.449249        -0.703695        -0.065295
 C        -0.674447        -0.905972        -0.458407
 C        -2.124142        -0.556512        -0.173281
 C        -2.418683         0.749899        -0.921687
 O        -2.291186        -0.652662         1.240787
 C        -3.540072        -0.805885         1.683293
 C        -3.658052        -0.709715         3.188751
 O        -4.455811        -0.879530         0.960700
 H         1.583380         0.960965        -0.000291
 H         2.515441        -0.482918         0.551058
 H         2.031571        -0.009300        -1.194295
 H        -2.733071        -1.237224        -0.670845
 H        -3.542222         0.793128        -0.884632
 H        -1.956282         1.699999        -0.726826
 H        -2.308254         0.448685        -2.025470
 H        -2.793808        -0.625105         3.855292
 H        -4.128710         0.308934         3.275361
 H        -4.459878        -1.334504         3.634074
