19
Iteration:  2171
 C         1.660203        -0.494329         0.358944
 C         0.275057        -0.397854        -0.148244
 C        -0.937000        -0.272831        -0.362016
 C        -2.377632        -0.134443        -0.389909
 C        -2.606135         1.184135        -1.223818
 O        -3.147489         0.155108         1.011640
 C        -3.282593        -1.135146         1.630834
 C        -4.071873        -1.042280         2.917287
 O        -2.648844        -2.134008         1.373944
 H         1.833048         0.382335         1.143615
 H         1.832906        -1.409769         0.940263
 H         2.526882        -0.491310        -0.350289
 H        -2.824434        -0.934185        -0.923167
 H        -1.927530         2.063069        -0.776756
 H        -2.404405         0.950206        -2.301712
 H        -3.590198         1.545882        -1.012311
 H        -3.462300        -0.582944         3.763398
 H        -5.049848        -0.573652         3.155570
 H        -4.198278        -2.107506         3.111367
