19
Iteration:  3985
 C         1.675752        -0.772251         0.166875
 C         0.309202        -0.391850        -0.099579
 C        -0.913560        -0.415177        -0.103941
 C        -2.318436        -0.063007        -0.350039
 C        -2.447560         1.218981        -1.140981
 O        -2.909429         0.131517         1.016432
 C        -3.381317        -1.000027         1.617607
 C        -3.515204        -0.896350         3.151854
 O        -3.604289        -2.059337         1.010955
 H         2.042680        -1.667664        -0.404206
 H         2.308185         0.093498        -0.030194
 H         1.713464        -0.995549         1.239712
 H        -2.749171        -1.097641        -0.552846
 H        -3.445635         1.370232        -1.648085
 H        -2.355077         2.067265        -0.418461
 H        -1.653544         1.263795        -1.859978
 H        -2.738021        -1.430043         3.684170
 H        -3.466099         0.132155         3.496040
 H        -4.456988        -1.383811         3.463511
