19
Iteration:   428charge 0 multiplicity 1
 C         1.661022         0.029645         0.265343
 C         0.269494         0.046921        -0.059115
 C        -0.929170         0.183899        -0.196371
 C        -2.397629        -0.096706        -0.409391
 C        -3.091761         1.124001        -1.114703
 O        -3.104350        -0.220476         0.888573
 C        -3.069843        -1.473255         1.635369
 C        -4.040419        -1.257787         2.841845
 O        -2.394043        -2.443988         1.408646
 H         1.886796         0.831377         1.145860
 H         2.052275        -0.941221         0.489813
 H         2.174739         0.372116        -0.573026
 H        -2.494277        -1.146589        -0.774053
 H        -2.653008         2.088333        -0.810744
 H        -2.952447         1.134356        -2.241002
 H        -4.137716         1.009843        -0.922314
 H        -3.414242        -1.009755         3.765191
 H        -4.876223        -0.535165         2.681266
 H        -4.501039        -2.201284         3.247965
