19
Iteration:  1201charge 0 multiplicity 1
 C         1.619271        -0.290574         0.392783
 C         0.204844        -0.039106         0.103405
 C        -0.992114        -0.020149        -0.131093
 C        -2.390761        -0.170171        -0.448170
 C        -3.000140         1.077770        -1.124974
 O        -3.239059        -0.162517         0.815960
 C        -3.091231        -1.271601         1.559498
 C        -3.719725        -1.003542         2.915446
 O        -2.510092        -2.282525         1.210653
 H         1.990438        -1.341989         0.000361
 H         2.233130         0.512540        -0.076541
 H         1.680194        -0.185508         1.394500
 H        -2.518918        -1.069818        -0.986031
 H        -3.210419         1.635802        -0.286494
 H        -2.236341         1.771476        -1.603042
 H        -3.837183         0.927730        -1.694077
 H        -3.324636        -0.070398         3.428024
 H        -4.817886        -0.828438         2.965863
 H        -3.615389        -1.966258         3.540314
