19
Iteration:   192
 C         1.560838         0.316988         0.307729
 C         0.085821         0.060668         0.239917
 C        -1.055540        -0.172312        -0.099856
 C        -2.483575        -0.191406        -0.469862
 C        -2.922706         1.188671        -1.210986
 O        -3.065286        -0.228181         0.916050
 C        -3.048069        -1.398845         1.589282
 C        -3.648194        -1.310347         2.937933
 O        -2.611171        -2.443186         1.147947
 H         1.973090        -0.244405        -0.382426
 H         1.798745         1.354978         0.116379
 H         1.954273         0.017212         1.394066
 H        -2.661927        -1.178870        -0.896834
 H        -3.050609         1.978545        -0.357976
 H        -1.979903         1.326809        -1.883244
 H        -3.943338         1.155359        -1.756338
 H        -4.398276        -2.113826         2.823870
 H        -2.778363        -1.528414         3.571321
 H        -4.037640        -0.301510         3.135777
