19
Iteration:   945charge 0 multiplicity 1
 C         1.967682         0.694142        -0.193105
 C         0.575359         0.305069         0.042041
 C        -0.595469         0.005476        -0.022821
 C        -1.914228        -0.550978        -0.119773
 C        -2.851874         0.310440        -0.925587
 O        -2.504442        -0.413680         1.379027
 C        -3.588118        -1.294773         1.528625
 C        -4.021199        -1.174732         3.012828
 O        -4.023775        -2.024701         0.689753
 H         2.340226         1.631020         0.398556
 H         2.719541         0.002781        -0.096819
 H         2.042972         1.105838        -1.287290
 H        -1.927122        -1.618173        -0.483059
 H        -3.205823         1.137166        -0.307260
 H        -2.342900         0.899862        -1.773130
 H        -3.660355        -0.329404        -1.308289
 H        -4.910621        -0.549101         3.269453
 H        -4.513179        -2.140560         3.308622
 H        -3.058396        -1.003203         3.633653
