19
Iteration:  3144
 C         1.574787        -0.852747         0.450106
 C         0.253080        -0.487281        -0.051689
 C        -0.913631        -0.225344        -0.261891
 C        -2.285244        -0.066414        -0.469896
 C        -2.703624         1.229478        -1.199474
 O        -3.051616        -0.033756         0.795660
 C        -3.205010        -1.086654         1.694128
 C        -4.100036        -0.602244         2.793698
 O        -2.632719        -2.134195         1.499005
 H         1.390891        -1.367951         1.449338
 H         2.058351        -1.618166        -0.193391
 H         2.252599        -0.076134         0.609400
 H        -2.743618        -0.828999        -1.113305
 H        -3.804351         1.124376        -1.323744
 H        -2.780077         2.105078        -0.489823
 H        -2.158102         1.418237        -2.142239
 H        -3.676220         0.249404         3.294680
 H        -5.069111        -0.195545         2.514564
 H        -4.039172        -1.368906         3.539302
