19
Iteration:  2955charge 0 multiplicity 1
 C         1.961249         0.121688         0.083376
 C         0.572733        -0.360411         0.049405
 C        -0.587012        -0.581638        -0.231404
 C        -2.007267        -0.566252        -0.212063
 C        -2.503728         0.674773        -1.084770
 O        -2.525438        -0.322339         1.162157
 C        -3.670644        -0.992408         1.574545
 C        -3.828547        -0.673639         3.049569
 O        -4.378791        -1.684572         0.934345
 H         2.270914         0.976650         0.948319
 H         2.655498        -0.765272         0.153329
 H         2.106616         0.570057        -0.939798
 H        -2.286951        -1.544394        -0.631022
 H        -3.648459         0.590027        -1.048202
 H        -2.207244         1.541011        -0.528030
 H        -2.114051         0.707545        -2.117689
 H        -3.122593        -1.152118         3.748053
 H        -3.722397         0.383739         3.207297
 H        -4.823389        -1.005977         3.236886
