19
Iteration:  3195
 C         1.451093        -0.845223         0.366036
 C         0.069973        -0.632709         0.141681
 C        -1.058602        -0.487553        -0.203942
 C        -2.334748        -0.060486        -0.524718
 C        -2.450228         1.337621        -1.098888
 O        -3.322292        -0.085249         0.561509
 C        -3.166245        -0.968407         1.600000
 C        -4.062919        -0.749106         2.848012
 O        -2.286348        -1.880227         1.623391
 H         1.669708        -1.626109         1.174205
 H         1.999040        -1.136801        -0.523247
 H         1.889964         0.160870         0.606800
 H        -2.813983        -0.608558        -1.396319
 H        -3.512878         1.803140        -1.066038
 H        -1.923023         2.034356        -0.466005
 H        -1.996963         1.231992        -2.020173
 H        -4.131647         0.255391         3.315070
 H        -5.153053        -0.706462         2.521410
 H        -3.747961        -1.430896         3.677572
