19
Iteration:  2605
 C         2.042909        -0.151378         0.316935
 C         0.556570        -0.233516        -0.159553
 C        -0.658105        -0.314914        -0.263510
 C        -2.124969        -0.346143        -0.260906
 C        -2.831643         0.829153        -1.000659
 O        -2.651200        -0.133215         1.098263
 C        -3.421393        -1.093056         1.550886
 C        -3.978394        -0.707657         2.930644
 O        -3.873100        -2.124034         1.018024
 H         2.523204        -0.091539        -0.571712
 H         2.343020         0.889068         0.656285
 H         2.390521        -1.003497         0.999749
 H        -2.477957        -1.365357        -0.450052
 H        -2.296714         1.734923        -0.848510
 H        -3.161750         0.635780        -2.087759
 H        -3.769679         0.904974        -0.416227
 H        -3.253885        -0.305843         3.632201
 H        -4.613653         0.166504         2.761353
 H        -4.413736        -1.584318         3.407965
