19
Iteration:  1455
 C         1.827157        -0.082733         0.081586
 C         0.352599         0.004832         0.024312
 C        -0.875679        -0.078334        -0.094289
 C        -2.328605        -0.141171        -0.315399
 C        -2.657554         0.942995        -1.266564
 O        -3.045166         0.010378         1.033609
 C        -3.323783        -1.218044         1.685269
 C        -3.948669        -1.177342         3.036985
 O        -3.115514        -2.382952         1.180931
 H         2.307886         1.011109        -0.068618
 H         2.245692        -0.549414         1.048176
 H         2.118916        -0.570466        -0.756213
 H        -2.508643        -1.122232        -0.664902
 H        -2.203809         1.902455        -0.836379
 H        -2.092205         0.699910        -2.138279
 H        -3.799005         0.929732        -1.461759
 H        -3.157500        -1.704906         3.657150
 H        -4.181673        -0.105473         3.299331
 H        -4.803324        -1.869511         2.991636
