19
Iteration:  4908charge 0 multiplicity 1
 C         1.979324        -0.782839        -0.391209
 C         0.473021        -0.688363        -0.321935
 C        -0.726615        -0.456973        -0.232251
 C        -2.198929        -0.098663        -0.257751
 C        -2.453640         1.294564        -0.812091
 O        -2.708738         0.003541         1.192890
 C        -3.570641        -1.022900         1.711190
 C        -4.029710        -0.477050         3.079470
 O        -3.844602        -2.146384         1.306875
 H         2.480689        -0.741463        -1.348017
 H         2.470468        -0.055995         0.289017
 H         2.320290        -1.741545        -0.132662
 H        -2.605811        -0.901382        -0.880260
 H        -3.335605         1.421167        -1.472618
 H        -2.312987         2.074317        -0.033273
 H        -1.579075         1.545088        -1.541592
 H        -4.718331        -1.147465         3.526588
 H        -3.179434        -0.237842         3.734660
 H        -4.473311         0.508359         2.886940
