19
Iteration:  1322
 C         1.445875        -0.364109         0.503256
 C         0.189827        -0.346149        -0.191845
 C        -1.020141        -0.105813        -0.237495
 C        -2.450646        -0.021419        -0.476877
 C        -2.903419         1.202869        -1.174098
 O        -3.158372        -0.105311         0.926287
 C        -3.057116        -1.188446         1.676480
 C        -3.921818        -1.215394         2.900635
 O        -2.255828        -2.077472         1.302771
 H         2.339836        -0.129546        -0.278526
 H         1.477966         0.484456         1.204090
 H         1.639603        -1.227060         0.985087
 H        -2.752944        -0.947314        -0.900562
 H        -2.613897         2.056501        -0.622316
 H        -2.421392         1.308558        -2.176948
 H        -3.951585         1.129383        -1.334847
 H        -4.916428        -1.517910         2.527599
 H        -3.635707        -1.844881         3.764952
 H        -3.997442        -0.263861         3.480542
