19
Iteration:  2582charge 0 multiplicity 1
 C         1.894775        -0.139849         0.192729
 C         0.474225        -0.337961         0.027222
 C        -0.726450        -0.353523        -0.184114
 C        -2.128072        -0.298163        -0.254031
 C        -2.792326         0.885281        -1.178832
 O        -2.629770        -0.113080         1.150117
 C        -3.446101        -1.040568         1.566331
 C        -4.003578        -0.802578         3.045259
 O        -3.672916        -2.090666         0.936830
 H         2.478240        -0.256479        -0.631453
 H         2.134411         0.945606         0.477910
 H         2.118449        -0.825114         1.099101
 H        -2.414742        -1.329344        -0.502903
 H        -2.040674         1.723357        -1.328291
 H        -3.012541         0.441931        -2.177833
 H        -3.739158         1.265599        -0.835812
 H        -3.126356        -0.760983         3.710275
 H        -4.234210         0.261945         3.062258
 H        -4.688013        -1.502747         3.475489
