19
Iteration:   329charge 0 multiplicity 1
 C         1.571248        -0.174846         0.377069
 C         0.150683        -0.090040         0.031445
 C        -1.065464         0.099723        -0.046956
 C        -2.504586        -0.069192        -0.394332
 C        -3.093849         1.154700        -1.272946
 O        -3.329231        -0.204015         0.870374
 C        -2.972690        -1.288083         1.633379
 C        -3.795154        -1.475274         2.804746
 O        -2.108153        -2.053110         1.339470
 H         2.134376         0.761588        -0.022314
 H         1.725274        -0.312690         1.449629
 H         2.036409        -0.989260        -0.077758
 H        -2.639858        -1.091505        -0.899707
 H        -3.166222         2.028975        -0.742148
 H        -2.382463         1.282377        -2.117344
 H        -4.078691         1.009791        -1.659517
 H        -3.472606        -2.421842         3.278579
 H        -3.866898        -0.686710         3.564947
 H        -4.844165        -1.681346         2.602626
