19
Iteration:  4527
 C         2.052798        -0.526006        -0.316666
 C         0.602315        -0.458587        -0.094849
 C        -0.612798        -0.313149        -0.083371
 C        -1.990563        -0.441466        -0.195400
 C        -2.651587         0.551221        -1.154742
 O        -2.397218        -0.461597         1.297238
 C        -3.681399        -0.793734         1.683400
 C        -3.735843        -0.798706         3.222015
 O        -4.564784        -1.079947         0.970964
 H         2.501762         0.068140         0.495489
 H         2.493531        -1.575733        -0.347692
 H         2.259861         0.063986        -1.211113
 H        -2.161436        -1.418446        -0.523664
 H        -3.802014         0.672138        -1.016848
 H        -2.255711         1.606956        -0.824585
 H        -2.377592         0.406143        -2.225394
 H        -2.798816        -1.107161         3.736988
 H        -3.743813         0.272944         3.562622
 H        -4.640566        -1.277948         3.663013
