19
Iteration:   372
 C         1.582783        -0.203626         0.281036
 C         0.191867         0.146258         0.104316
 C        -1.009085         0.028620        -0.074948
 C        -2.442197        -0.121451        -0.366818
 C        -3.166496         1.025907        -1.137657
 O        -3.175428        -0.166203         0.905602
 C        -3.007387        -1.275185         1.603650
 C        -3.930832        -1.386305         2.765666
 O        -2.176660        -2.107270         1.267977
 H         2.242114         0.642251         0.562427
 H         1.703493        -0.854802         1.149949
 H         2.081849        -0.702320        -0.578008
 H        -2.558700        -1.169414        -0.784421
 H        -3.400736         1.786168        -0.463537
 H        -2.600964         1.415551        -2.031324
 H        -4.115765         0.632594        -1.547540
 H        -3.361188        -1.751788         3.651134
 H        -4.361458        -0.418471         3.025211
 H        -4.685015        -2.102823         2.458256
