19
Iteration:  2539charge 0 multiplicity 1
 C         1.823474        -0.228708         0.150140
 C         0.426292        -0.274143         0.068930
 C        -0.788833        -0.341021        -0.019418
 C        -2.241228        -0.222970        -0.225148
 C        -2.531290         0.885721        -1.320249
 O        -2.921060         0.100908         1.019733
 C        -3.410061        -1.113596         1.655459
 C        -3.830922        -0.930450         3.079958
 O        -3.570176        -2.136016         1.015623
 H         2.101567        -0.837043        -0.684451
 H         2.198048         0.824843        -0.161178
 H         2.402267        -0.630406         1.078487
 H        -2.617972        -1.151965        -0.634867
 H        -2.024053         1.876609        -1.048398
 H        -2.199560         0.685559        -2.380517
 H        -3.610337         1.063922        -1.322265
 H        -3.368559        -1.771694         3.636918
 H        -3.600264         0.032179         3.567253
 H        -4.897620        -1.162986         3.030109
