19
Iteration:  3691charge 0 multiplicity 1
 C         2.083772         0.231958        -0.330963
 C         0.709949        -0.289062        -0.019615
 C        -0.481317        -0.509639        -0.025926
 C        -1.989492        -0.730922         0.000705
 C        -2.612191        -0.019719        -1.176798
 O        -2.383306        -0.559869         1.409579
 C        -3.686262        -0.782209         1.672030
 C        -3.996970        -0.841593         3.142992
 O        -4.553060        -0.846375         0.758148
 H         2.415593        -0.029846        -1.354469
 H         1.993513         1.274834        -0.246378
 H         2.665668        -0.037176         0.515118
 H        -2.309088        -1.762533        -0.298476
 H        -3.581160        -0.399112        -1.483176
 H        -2.666732         1.155561        -1.007297
 H        -1.722119        -0.135830        -1.875809
 H        -5.049511        -0.492105         3.168018
 H        -3.902149        -1.939814         3.420830
 H        -3.306808        -0.154997         3.657831
