19
Iteration:  3518charge 0 multiplicity 1
 C         1.845377        -0.098407         0.340667
 C         0.521910        -0.476380        -0.190336
 C        -0.683675        -0.606260        -0.274347
 C        -2.202448        -0.465966        -0.386103
 C        -2.624957         0.765401        -1.185503
 O        -2.541736        -0.207383         1.008979
 C        -3.431740        -0.970292         1.707911
 C        -3.742209        -0.456749         3.053534
 O        -4.115951        -1.873421         1.189003
 H         2.725299        -0.591858        -0.223183
 H         1.829325         1.023284         0.055602
 H         1.968281        -0.278731         1.437278
 H        -2.529804        -1.458049        -0.674946
 H        -3.664624         0.796989        -1.212520
 H        -2.131814         1.761543        -0.872758
 H        -2.393816         0.445941        -2.206793
 H        -4.623707         0.164400         2.879935
 H        -4.028184        -1.325016         3.697187
 H        -2.923505         0.110707         3.478859
