19
Iteration:   680
 C         1.859754         0.600446         0.132547
 C         0.457734         0.315192        -0.029042
 C        -0.694335         0.154107        -0.291042
 C        -2.003536        -0.407186        -0.138951
 C        -3.028535         0.269740        -0.989288
 O        -2.424074        -0.365591         1.274892
 C        -3.428730        -1.250870         1.557940
 C        -3.905911        -1.262189         3.008801
 O        -3.808209        -2.100510         0.758006
 H         2.419883        -0.058815        -0.615044
 H         2.014509         1.634161        -0.050466
 H         2.194914         0.272135         1.227553
 H        -1.941130        -1.413544        -0.494374
 H        -3.268740         1.292928        -0.580907
 H        -2.658567         0.308827        -1.983943
 H        -4.027817        -0.225984        -0.927052
 H        -4.804364        -1.942586         3.069679
 H        -3.106669        -1.547102         3.774720
 H        -4.273105        -0.228517         3.352739
