19
Iteration:   906
 C         1.977217         0.823446        -0.215693
 C         0.562194         0.452758        -0.173913
 C        -0.523685        -0.001931         0.152858
 C        -1.856356        -0.483769        -0.004148
 C        -2.808304         0.258793        -0.922531
 O        -2.365123        -0.693089         1.427028
 C        -3.627247        -1.340644         1.502025
 C        -4.025288        -1.169951         2.926742
 O        -4.272326        -1.922609         0.694278
 H         2.039661         1.849575         0.107033
 H         2.622481         0.016620         0.412529
 H         2.250303         0.722595        -1.226339
 H        -1.714545        -1.529990        -0.383123
 H        -2.712478         1.364447        -0.768442
 H        -2.559518        -0.061000        -1.878101
 H        -3.865925        -0.080315        -0.829106
 H        -4.014233        -0.109880         2.883678
 H        -4.944493        -1.692150         3.150432
 H        -3.388963        -1.437293         3.729745
