19
Iteration:   847
 C         1.817892         1.045628        -0.204150
 C         0.557763         0.296150        -0.100133
 C        -0.466822        -0.350179         0.035829
 C        -1.868119        -0.612476         0.030552
 C        -2.734150         0.274723        -0.843989
 O        -2.363466        -0.654260         1.373853
 C        -3.574083        -1.280609         1.499735
 C        -3.988176        -1.184782         2.942931
 O        -4.277778        -1.776275         0.652846
 H         1.571895         2.170722        -0.549147
 H         2.375949         1.151191         0.697259
 H         2.486192         0.692868        -1.032607
 H        -2.022455        -1.626583        -0.229975
 H        -2.720650         1.337024        -0.738227
 H        -2.308890         0.084049        -1.887556
 H        -3.744149        -0.016475        -0.679480
 H        -3.442005        -0.573515         3.764720
 H        -5.014756        -0.681610         2.862620
 H        -3.954055        -2.260619         3.355215
