19
Iteration:  3505charge 0 multiplicity 1
 C         1.934415        -0.081791         0.281009
 C         0.478516        -0.548474        -0.101168
 C        -0.726956        -0.493096        -0.391841
 C        -2.169508        -0.426700        -0.365807
 C        -2.551698         0.767721        -1.273272
 O        -2.637867        -0.209069         1.043572
 C        -3.507993        -1.016386         1.717532
 C        -3.783117        -0.408538         3.084718
 O        -4.060914        -2.010348         1.232861
 H         2.676121        -0.735841        -0.268758
 H         2.257150         0.950748         0.160744
 H         2.091186        -0.255507         1.351456
 H        -2.802764        -1.189082        -0.790639
 H        -3.552456         1.062941        -1.170802
 H        -2.002465         1.662809        -0.798299
 H        -2.093456         0.783827        -2.304949
 H        -4.629882         0.289847         3.022162
 H        -4.047756        -1.150726         3.866505
 H        -2.913494         0.222271         3.412143
