19
Iteration:  3828
 C         2.211134        -0.055343        -0.548645
 C         0.737247        -0.339831        -0.203436
 C        -0.449407        -0.446348         0.058280
 C        -2.010626        -0.611405         0.003514
 C        -2.611424         0.580058        -0.655527
 O        -2.482677        -0.536438         1.437887
 C        -3.783115        -0.904523         1.595772
 C        -4.165815        -0.429726         2.947089
 O        -4.389927        -1.572351         0.700419
 H         2.722042        -0.516386        -1.340421
 H         2.489426         1.001663        -0.559473
 H         2.801048        -0.404946         0.329791
 H        -2.186051        -1.682860        -0.217827
 H        -3.681073         0.342181        -0.817501
 H        -2.670755         1.340484         0.130708
 H        -2.120951         0.903517        -1.627427
 H        -5.180589        -0.696646         3.192079
 H        -3.512978        -1.013782         3.617420
 H        -3.949431         0.610294         3.034898
