19
Iteration:  3902
 C         1.989848        -0.575117        -0.136683
 C         0.579854        -0.305943        -0.159456
 C        -0.598473        -0.197294        -0.132149
 C        -2.007333        -0.303043        -0.135197
 C        -2.802274         0.821696        -0.799367
 O        -2.505066        -0.128620         1.315274
 C        -3.513534        -0.955107         1.592395
 C        -4.063570        -0.673261         2.969159
 O        -4.012773        -1.858572         0.800173
 H         2.225897        -1.323776        -0.934252
 H         2.767522         0.202580        -0.329628
 H         2.360092        -1.061887         0.750513
 H        -2.369368        -1.335241        -0.429947
 H        -3.839623         0.542597        -0.324149
 H        -2.553533         1.874418        -0.664578
 H        -2.965301         0.518496        -1.889561
 H        -4.463907        -1.587291         3.448875
 H        -3.191325        -0.278691         3.552666
 H        -4.798188         0.175173         2.905447
