19
Iteration:  1723
 C         1.949118         0.577537        -0.410422
 C         0.627234         0.163778         0.074417
 C        -0.524586        -0.305327         0.099427
 C        -1.870969        -0.632875         0.039670
 C        -2.433780         0.246948        -1.145857
 O        -2.513989        -0.450081         1.305591
 C        -3.724334        -1.057293         1.625075
 C        -3.942567        -1.191870         3.110772
 O        -4.484235        -1.571635         0.751385
 H         2.677946        -0.034049        -0.039118
 H         2.055039         0.623099        -1.505543
 H         2.100490         1.666123         0.040538
 H        -2.037517        -1.665769        -0.375986
 H        -2.245388         1.247975        -0.831284
 H        -1.856324        -0.099521        -1.978789
 H        -3.533863         0.137608        -1.318940
 H        -4.912365        -1.695421         3.325766
 H        -3.104448        -1.535932         3.767004
 H        -4.251571        -0.238251         3.613602
