19
Iteration:  2331
 C         1.554205        -0.690426         0.393075
 C         0.177501        -0.424792         0.112301
 C        -0.976178        -0.305289        -0.270741
 C        -2.433821        -0.058391        -0.412091
 C        -2.790231         1.299776        -1.129256
 O        -3.053191         0.058811         0.903743
 C        -3.125233        -1.084405         1.549599
 C        -3.958683        -0.973294         2.789882
 O        -2.499830        -2.097692         1.350868
 H         1.615071        -1.195781         1.415147
 H         1.992898        -1.321631        -0.444907
 H         2.096536         0.276042         0.419539
 H        -2.969450        -0.851318        -0.959354
 H        -2.381799         2.181388        -0.486672
 H        -2.512507         1.443303        -2.125262
 H        -3.859953         1.310011        -1.079980
 H        -4.665072        -0.190809         2.458369
 H        -4.533493        -1.868229         2.994764
 H        -3.376797        -0.655198         3.662012
