19
Iteration:  2612
 C         2.014595        -0.141433         0.278656
 C         0.594486        -0.194122        -0.147487
 C        -0.630906        -0.277183        -0.283721
 C        -2.085444        -0.391914        -0.257300
 C        -2.879012         0.817069        -0.964907
 O        -2.605677        -0.149277         1.116030
 C        -3.471936        -1.128107         1.534545
 C        -3.977229        -0.700469         2.927034
 O        -3.912000        -2.118659         1.049277
 H         2.747896        -0.231550        -0.656765
 H         2.176273         0.734647         0.908658
 H         2.287155        -1.008379         0.908785
 H        -2.302513        -1.430916        -0.613093
 H        -2.232597         1.799272        -0.892697
 H        -2.927639         0.885291        -2.009958
 H        -3.877686         0.901201        -0.612909
 H        -3.157775        -0.095709         3.403621
 H        -4.788494         0.007413         2.682702
 H        -4.517036        -1.427034         3.508789
