19
Iteration:  1365
 C         1.587221        -0.416486         0.347210
 C         0.204820        -0.096497         0.067246
 C        -0.974649        -0.084278        -0.267860
 C        -2.387764        -0.043300        -0.429480
 C        -3.050292         1.152356        -1.202271
 O        -2.985630        -0.045678         0.970053
 C        -3.100226        -1.295335         1.627986
 C        -3.991168        -1.109095         2.855321
 O        -2.449138        -2.255946         1.325196
 H         2.358606         0.220882        -0.304886
 H         1.874952        -0.019044         1.258482
 H         1.884538        -1.424893         0.264495
 H        -2.719304        -0.979572        -0.887338
 H        -3.158219         2.013722        -0.595571
 H        -2.359139         1.629343        -2.022527
 H        -3.986208         0.879199        -1.663063
 H        -4.565747        -2.022575         2.977831
 H        -3.322897        -0.914198         3.720012
 H        -4.576209        -0.185807         2.873647
