19
Iteration:  1306charge 0 multiplicity 1
 C         1.551096        -0.353174         0.472040
 C         0.153494        -0.237485        -0.007761
 C        -1.042796        -0.286688        -0.323484
 C        -2.497353        -0.102681        -0.402142
 C        -2.938104         1.242489        -1.134462
 O        -3.223890        -0.047868         0.837203
 C        -3.041950        -1.181403         1.594970
 C        -3.894950        -1.215324         2.876614
 O        -2.201337        -2.044558         1.335785
 H         2.257700        -0.420978        -0.266376
 H         1.739221         0.451209         1.218123
 H         1.529145        -1.337974         1.163004
 H        -2.921887        -0.902429        -1.097832
 H        -2.474275         2.167568        -0.618195
 H        -2.637416         1.082244        -2.199317
 H        -4.069975         1.363846        -1.053595
 H        -4.975253        -1.200218         2.746709
 H        -3.554970        -2.135755         3.337416
 H        -3.631149        -0.311850         3.406868
