19
Iteration:  1446charge 0 multiplicity 1
 C         1.791557        -0.087799         0.100913
 C         0.347319        -0.067070        -0.018726
 C        -0.857624        -0.010852        -0.061508
 C        -2.281344        -0.048909        -0.240936
 C        -2.686584         0.980799        -1.325640
 O        -3.105800        -0.041759         1.034412
 C        -3.254398        -1.324099         1.665055
 C        -3.931675        -1.132258         3.001786
 O        -3.067697        -2.383554         1.195519
 H         2.296368         0.843530        -0.057906
 H         2.122415        -0.609996         1.074788
 H         2.110908        -0.759816        -0.656500
 H        -2.523205        -1.036267        -0.618776
 H        -2.404522         2.032324        -1.070688
 H        -2.247709         0.639605        -2.177714
 H        -3.781055         1.012501        -1.481783
 H        -3.431884        -1.605563         3.864516
 H        -4.064110        -0.111147         3.392267
 H        -4.921978        -1.657145         2.926501
