19
Iteration:  4106
 C         1.183971        -1.248394         0.647210
 C         0.043179        -0.586426        -0.155162
 C        -1.117074        -0.308626        -0.344426
 C        -2.543970         0.093136        -0.508475
 C        -2.561747         1.515476        -0.995544
 O        -3.108515         0.066649         0.816365
 C        -3.014088        -1.035125         1.568575
 C        -3.392348        -0.745304         3.113844
 O        -2.670210        -2.020352         1.063051
 H         1.113193        -2.286327         0.286420
 H         2.186252        -1.009868         0.367277
 H         1.008426        -1.257056         1.676419
 H        -2.914294        -0.631607        -1.273928
 H        -3.645095         1.955932        -1.075023
 H        -2.166749         2.191621        -0.251400
 H        -1.859916         1.593278        -1.858245
 H        -3.395006         0.320835         3.344946
 H        -4.453714        -0.943619         3.330261
 H        -2.676692        -1.222754         3.768096
