19
Iteration:  3619
 C         2.165725        -0.114098         0.174903
 C         0.691576        -0.061739        -0.085760
 C        -0.494462        -0.254541        -0.228934
 C        -1.929249        -0.651850        -0.327388
 C        -2.866545         0.085785        -1.222831
 O        -2.454903        -0.493204         1.190395
 C        -3.687012        -0.862945         1.640365
 C        -3.642109        -0.714073         3.202487
 O        -4.699341        -1.151067         0.927456
 H         2.678141        -0.592230        -0.663341
 H         2.449452         1.020018         0.283885
 H         2.288727        -0.547691         1.208563
 H        -1.724259        -1.697118        -0.389032
 H        -3.895791        -0.366686        -1.017740
 H        -3.009858         1.080231        -1.062227
 H        -2.449295        -0.127270        -2.146717
 H        -4.416264         0.016176         3.441244
 H        -3.772889        -1.658161         3.627847
 H        -2.659873        -0.251857         3.311184
