19
Iteration:  4462charge 0 multiplicity 1
 C         2.061658        -0.829870        -0.350386
 C         0.634621        -0.328088        -0.361160
 C        -0.552810        -0.202920        -0.206977
 C        -2.023639        -0.313553        -0.024776
 C        -2.851081         0.594473        -0.840716
 O        -2.353846        -0.189104         1.379350
 C        -3.556365        -0.797895         1.709762
 C        -4.051877        -0.676181         3.123965
 O        -4.226438        -1.463922         0.839857
 H         2.332640        -0.735361         0.665217
 H         2.054054        -1.870104        -0.555996
 H         2.754181        -0.168775        -0.836669
 H        -2.209101        -1.336075        -0.249895
 H        -3.838416         0.136642        -1.205469
 H        -2.909927         1.537449        -0.203825
 H        -2.292932         0.999109        -1.689436
 H        -3.517563        -1.369659         3.805261
 H        -3.974650         0.386169         3.432597
 H        -5.140304        -0.796477         3.051937
