19
Iteration:  3460charge 0 multiplicity 1
 C         1.933641        -0.425187         0.023451
 C         0.459367        -0.270828         0.012340
 C        -0.738643        -0.501771         0.041069
 C        -2.204168        -0.428282        -0.337969
 C        -2.531207         0.896897        -1.207676
 O        -2.886118        -0.021164         0.912642
 C        -3.424025        -1.008052         1.682644
 C        -3.904540        -0.399757         2.967900
 O        -3.726717        -2.170890         1.303954
 H         2.354896        -1.305254        -0.577750
 H         2.480109         0.476118        -0.329548
 H         2.270436        -0.395819         1.097975
 H        -2.677378        -1.357697        -0.763946
 H        -3.599484         1.167308        -1.496661
 H        -2.019179         1.703483        -0.699353
 H        -1.914282         0.860883        -2.178647
 H        -4.796106         0.165602         2.589019
 H        -4.293727        -1.236181         3.530380
 H        -3.195500         0.291002         3.510229
