19
Iteration:  3101charge 0 multiplicity 1
 C         1.647658        -0.811772         0.382877
 C         0.341781        -0.359769         0.072082
 C        -0.789577        -0.130931        -0.245786
 C        -2.186212        -0.053403        -0.377069
 C        -2.832023         0.974896        -1.343111
 O        -2.898897         0.077660         0.952463
 C        -3.260128        -0.989004         1.651732
 C        -3.997636        -0.716251         2.948526
 O        -3.062217        -2.165541         1.254883
 H         1.586087        -1.118891         1.457413
 H         2.098806        -1.674472        -0.157300
 H         2.343713        -0.026721         0.172456
 H        -2.560100        -1.038555        -0.554386
 H        -3.878819         0.921103        -1.367592
 H        -2.650475         2.037211        -1.052611
 H        -2.327456         0.683432        -2.273949
 H        -3.446157         0.001020         3.531497
 H        -4.820658        -0.077170         2.640513
 H        -4.137371        -1.595781         3.534808
