19
Iteration:  4974charge 0 multiplicity 1
 C         1.678400        -1.014952        -0.158717
 C         0.329799        -0.673525        -0.193914
 C        -0.868963        -0.485600        -0.266081
 C        -2.225217        -0.022545        -0.205327
 C        -2.625685         1.270686        -0.815403
 O        -2.763077         0.147209         1.189938
 C        -3.290740        -0.930801         1.689361
 C        -3.902230        -0.594506         2.935941
 O        -3.332013        -2.003621         1.133741
 H         1.968116        -1.452399        -1.124936
 H         2.237194        -0.111900         0.185530
 H         1.697384        -1.835946         0.533382
 H        -2.952537        -0.729485        -0.619234
 H        -3.704283         1.205996        -1.065802
 H        -2.247341         2.191372        -0.318079
 H        -2.134385         1.150192        -1.924260
 H        -4.947033        -0.690571         2.635131
 H        -3.861943        -1.350189         3.728963
 H        -3.764565         0.409405         3.285577
