19
Iteration:  3022
 C         1.978879        -0.372900         0.252818
 C         0.544409        -0.343713         0.039854
 C        -0.671392        -0.195626        -0.110387
 C        -2.157681        -0.283207        -0.277937
 C        -2.592054         0.770380        -1.356659
 O        -2.817756        -0.041438         1.012590
 C        -3.558753        -0.972106         1.596155
 C        -3.762051        -0.728590         3.111371
 O        -3.952253        -2.048595         1.061316
 H         2.435567        -0.067208         1.272869
 H         2.233854        -1.392601        -0.079483
 H         2.439570         0.383182        -0.376780
 H        -2.615138        -1.246753        -0.426607
 H        -3.713202         0.617136        -1.544499
 H        -2.343936         1.737320        -0.962730
 H        -2.064956         0.607641        -2.259102
 H        -2.841505        -0.595094         3.628168
 H        -4.365469         0.146923         3.313525
 H        -4.335282        -1.574200         3.505978
