19
Iteration:  4644charge 0 multiplicity 1
 C         1.870223        -0.123204        -0.124994
 C         0.492158        -0.615941        -0.154840
 C        -0.650755        -0.900262        -0.429687
 C        -2.093090        -0.624918        -0.272913
 C        -2.610533         0.751674        -0.878711
 O        -2.181331        -0.673596         1.285055
 C        -3.548166        -0.802641         1.640666
 C        -3.754218        -0.616131         3.187670
 O        -4.528386        -0.893982         0.978080
 H         2.045477         1.015840        -0.021167
 H         2.434410        -0.697208         0.638212
 H         2.415115        -0.285099        -1.098912
 H        -2.763984        -1.525351        -0.613416
 H        -3.629368         1.045380        -0.608743
 H        -1.888232         1.467900        -0.397730
 H        -2.469659         0.679809        -1.958227
 H        -2.767319        -0.680170         3.678649
 H        -4.162651         0.339812         3.485769
 H        -4.438832        -1.437358         3.395336
