19
Iteration:    45
 C         1.854672         0.700326         0.233338
 C         0.478495         0.308990        -0.077552
 C        -0.712448         0.136522        -0.200024
 C        -2.132540        -0.299480        -0.208552
 C        -3.141885         0.634225        -0.963186
 O        -2.595314        -0.389725         1.184363
 C        -3.336676        -1.470943         1.558338
 C        -3.914225        -1.364315         3.010778
 O        -3.512778        -2.336461         0.747094
 H         2.077065         0.229340         1.179566
 H         2.597800         0.403023        -0.506671
 H         1.861410         1.729644         0.361846
 H        -2.073098        -1.278064        -0.683886
 H        -3.338472         1.291615        -0.165406
 H        -2.684697         1.129615        -1.838848
 H        -4.046613         0.080896        -1.202317
 H        -4.754730        -2.005289         3.185861
 H        -3.035474        -1.728323         3.556565
 H        -4.106560        -0.326560         3.278893
