19
Iteration:  3885
 C         2.102124        -0.551559        -0.208991
 C         0.646805        -0.173898        -0.217573
 C        -0.560120        -0.223594        -0.218053
 C        -2.064372        -0.323336        -0.052847
 C        -2.835983         0.746853        -0.802242
 O        -2.409875        -0.342737         1.361899
 C        -3.578625        -0.971913         1.680933
 C        -4.197873        -0.626274         2.986816
 O        -4.042883        -1.739226         0.781422
 H         2.292233        -1.269534        -1.017386
 H         2.619305         0.395509        -0.319693
 H         2.281361        -1.020194         0.801981
 H        -2.140710        -1.410832        -0.284255
 H        -3.854237         0.898497        -0.697272
 H        -2.233376         1.681736        -0.616822
 H        -2.743134         0.632216        -1.885643
 H        -4.933208        -1.343999         3.334907
 H        -3.517301        -0.386814         3.795757
 H        -4.767068         0.287348         2.896680
