19
Iteration:  2093charge 0 multiplicity 1
 C         1.851722        -0.379010         0.239263
 C         0.398685        -0.371954         0.085131
 C        -0.774634        -0.080356        -0.215907
 C        -2.196751        -0.150109        -0.413238
 C        -2.926475         1.040778        -1.144757
 O        -2.977955        -0.033833         0.926060
 C        -3.269337        -1.158876         1.652353
 C        -4.059032        -0.823450         2.922842
 O        -3.075883        -2.291183         1.248518
 H         2.232017         0.743456         0.145192
 H         2.299257        -0.773116         1.203709
 H         2.293972        -0.889825        -0.548053
 H        -2.361425        -1.117759        -0.848845
 H        -2.662714         1.919839        -0.438723
 H        -2.571924         1.396101        -2.073972
 H        -3.995124         0.829079        -1.266085
 H        -3.843478        -1.584634         3.698435
 H        -3.735578         0.134548         3.354070
 H        -5.170937        -0.727772         2.791093
