19
Iteration:   653charge 0 multiplicity 1
 C         1.913125         0.497175         0.205722
 C         0.454319         0.368576        -0.174450
 C        -0.706885         0.044908        -0.132512
 C        -2.121187        -0.370614        -0.135017
 C        -3.146013         0.359124        -1.030436
 O        -2.512290        -0.239439         1.296732
 C        -3.385595        -1.335935         1.519628
 C        -3.832111        -1.188249         3.004354
 O        -3.642357        -2.233883         0.720286
 H         2.541115        -0.255890        -0.122060
 H         2.260376         1.523089        -0.231806
 H         1.893098         0.580586         1.268895
 H        -2.191151        -1.464094        -0.464472
 H        -3.453078         1.201978        -0.429571
 H        -2.723750         0.665698        -2.052106
 H        -4.083511        -0.145657        -1.207194
 H        -4.878738        -1.361353         3.030978
 H        -3.450434        -1.768261         3.767134
 H        -3.634669        -0.242597         3.389837
