19
Iteration:  2347charge 0 multiplicity 1
 C         1.523401        -0.617531         0.410468
 C         0.102473        -0.435306         0.150262
 C        -1.014419        -0.408217        -0.370411
 C        -2.376235        -0.004690        -0.430634
 C        -2.815844         1.280907        -1.152720
 O        -2.876052         0.177295         0.961964
 C        -3.104931        -1.081792         1.617099
 C        -4.071179        -1.022679         2.775733
 O        -2.544342        -2.116654         1.302776
 H         1.758609        -1.334318         1.260241
 H         1.935045        -1.144629        -0.424531
 H         2.086789         0.303117         0.615508
 H        -2.875130        -0.954274        -0.835656
 H        -2.189987         2.032889        -0.769818
 H        -2.484624         1.088916        -2.264836
 H        -3.955343         1.342602        -1.106000
 H        -4.951080        -0.459018         3.056004
 H        -4.195035        -2.107021         2.991804
 H        -3.394667        -0.594767         3.563039
