19
Iteration:  4013
 C         1.651058        -0.795424         0.306120
 C         0.204616        -0.587168        -0.022061
 C        -1.016064        -0.478170        -0.168748
 C        -2.408275         0.004539        -0.371168
 C        -2.449311         1.350232        -1.015568
 O        -3.072515         0.094613         0.928248
 C        -3.330842        -1.056294         1.567615
 C        -3.349546        -0.765353         3.056726
 O        -3.415816        -2.114791         1.006686
 H         2.008999        -1.638321        -0.253353
 H         2.151333         0.124271        -0.047949
 H         1.826191        -0.912848         1.406620
 H        -2.939783        -0.810604        -0.762246
 H        -3.413400         1.775853        -1.101772
 H        -1.829553         2.139424        -0.477608
 H        -1.839471         1.208502        -1.950778
 H        -2.306356        -0.704227         3.470590
 H        -3.693579         0.264115         3.233053
 H        -3.889647        -1.533086         3.596525
