19
Iteration:  1662
 C         2.151392         0.453067        -0.247683
 C         0.692514         0.171100        -0.094146
 C        -0.522137        -0.069069        -0.027803
 C        -1.940715        -0.581542        -0.050159
 C        -2.827989         0.190502        -0.965287
 O        -2.473322        -0.393222         1.377545
 C        -3.651020        -1.073554         1.584826
 C        -4.032313        -1.166565         3.040698
 O        -4.306652        -1.676499         0.731270
 H         2.648635         0.168551         0.791980
 H         2.677945        -0.093183        -1.030146
 H         2.393166         1.486871        -0.315843
 H        -1.952557        -1.649934        -0.102296
 H        -2.937094         1.306957        -0.648209
 H        -2.531969         0.294817        -2.014590
 H        -3.877411        -0.258845        -0.987460
 H        -4.978772        -0.666182         3.127459
 H        -4.276570        -2.180351         3.269261
 H        -3.230789        -0.707033         3.603064
