19
Iteration:  2970charge 0 multiplicity 1
 C         1.966603        -0.015348         0.099412
 C         0.553403        -0.234654        -0.000886
 C        -0.615485        -0.544769        -0.118709
 C        -2.076647        -0.525630        -0.307206
 C        -2.477722         0.674427        -1.083182
 O        -2.586009        -0.279601         1.089673
 C        -3.670335        -0.974730         1.603517
 C        -3.800999        -0.659783         3.085964
 O        -4.298723        -1.793644         0.942794
 H         2.083752         0.631802         0.969294
 H         2.569835        -0.959413         0.254131
 H         2.401912         0.723777        -0.708752
 H        -2.660143        -1.424639        -0.571941
 H        -3.531452         0.613618        -1.475171
 H        -2.229278         1.575198        -0.461583
 H        -1.808780         0.703588        -1.939259
 H        -2.862380        -1.054978         3.446171
 H        -3.783032         0.440912         3.285788
 H        -4.691263        -1.056280         3.648105
