19
Iteration:  2904
 C         2.029985         0.224653        -0.045954
 C         0.642460        -0.234960        -0.211752
 C        -0.528650        -0.520859        -0.087970
 C        -2.007196        -0.692312        -0.071768
 C        -2.632070         0.393532        -0.869593
 O        -2.339655        -0.584484         1.366244
 C        -3.649991        -0.914427         1.553902
 C        -4.048713        -0.685726         3.020686
 O        -4.403192        -1.318110         0.649583
 H         1.926828         1.086416         0.494170
 H         2.545185        -0.568177         0.499889
 H         2.482742         0.668433        -0.982924
 H        -2.222842        -1.682883        -0.492470
 H        -3.708803         0.495380        -0.494594
 H        -1.949839         1.221013        -0.856100
 H        -2.727173        -0.049602        -1.823565
 H        -3.746950        -1.553227         3.622685
 H        -3.369668         0.067722         3.486085
 H        -5.122696        -0.417515         3.154763
