19
Iteration:   261charge 0 multiplicity 1
 C         1.490334         0.044241         0.432438
 C         0.163244         0.091427        -0.029551
 C        -1.000259        -0.157033        -0.135997
 C        -2.348612        -0.149270        -0.502161
 C        -3.092029         1.167597        -0.977918
 O        -3.261085        -0.368406         0.779521
 C        -3.013151        -1.341651         1.581508
 C        -3.795434        -1.207050         2.844365
 O        -2.232565        -2.243381         1.266276
 H         2.094997         0.258782        -0.364167
 H         1.657646         0.707044         1.296898
 H         1.620147        -0.991273         0.813724
 H        -2.603441        -0.977391        -1.185078
 H        -2.747800         1.969133        -0.258593
 H        -2.927340         1.468136        -1.979354
 H        -4.192816         1.111020        -0.659240
 H        -4.245989        -2.173896         3.049277
 H        -3.091820        -0.842768         3.620683
 H        -4.582598        -0.470567         2.690190
