19
Iteration:  2215
 C         1.617526        -0.588671         0.253205
 C         0.167711        -0.479606         0.124444
 C        -1.039900        -0.283211        -0.017024
 C        -2.420347        -0.013087        -0.474686
 C        -2.685850         1.266579        -1.046496
 O        -3.256786        -0.084016         0.775345
 C        -3.118546        -1.133491         1.552057
 C        -3.924694        -0.831436         2.812932
 O        -2.477063        -2.140655         1.374829
 H         2.050092        -0.133966         1.214788
 H         1.921589        -1.633824         0.291071
 H         2.163732        -0.213143        -0.647153
 H        -2.850204        -0.830876        -1.026081
 H        -2.414431         2.131250        -0.353575
 H        -2.080831         1.478282        -2.001718
 H        -3.727428         1.353058        -1.358833
 H        -3.782049         0.253822         3.133119
 H        -5.033883        -0.788029         2.677351
 H        -3.738434        -1.611856         3.536884
