19
Iteration:  1554
 C         2.028696         0.354022         0.087176
 C         0.562373         0.070476        -0.118620
 C        -0.605666        -0.252486        -0.299567
 C        -2.169999        -0.373517        -0.343713
 C        -2.767139         0.879167        -0.946444
 O        -2.632473        -0.374034         1.089122
 C        -3.443599        -1.273678         1.654983
 C        -4.017416        -0.937828         2.969408
 O        -3.916269        -2.299692         1.162108
 H         2.161118         1.197058         0.943280
 H         2.703531        -0.518279         0.418703
 H         2.306242         0.786623        -0.798005
 H        -2.455683        -1.297988        -0.769068
 H        -2.218933         1.800647        -0.541397
 H        -2.466052         0.774719        -1.970457
 H        -3.895806         0.745671        -0.857645
 H        -3.484968        -0.044463         3.331159
 H        -5.096650        -0.839797         2.792833
 H        -3.922526        -1.776008         3.709993
