19
Iteration:  3982charge 0 multiplicity 1
 C         1.686879        -0.769215         0.170205
 C         0.335034        -0.391416        -0.107305
 C        -0.902012        -0.392367        -0.109557
 C        -2.347272        -0.046576        -0.345110
 C        -2.466274         1.192145        -1.133622
 O        -2.886617         0.113968         1.022241
 C        -3.382768        -0.966712         1.637447
 C        -3.532468        -0.910797         3.129960
 O        -3.623156        -2.058246         1.020729
 H         2.018716        -1.556759        -0.415634
 H         2.341000         0.043876        -0.096673
 H         1.865431        -1.057561         1.222185
 H        -2.731478        -1.054527        -0.534887
 H        -3.358705         1.323969        -1.753247
 H        -2.353060         2.064028        -0.348594
 H        -1.649507         1.190567        -1.917908
 H        -2.776280        -1.545854         3.623220
 H        -3.518017         0.106784         3.512266
 H        -4.489317        -1.315041         3.428941
