19
Iteration:  3793
 C         2.003223         0.180590        -0.660025
 C         0.713674        -0.345455         0.010651
 C        -0.466166        -0.686010         0.169300
 C        -1.866471        -0.689839         0.014509
 C        -2.377374         0.513056        -0.799320
 O        -2.413225        -0.632821         1.410070
 C        -3.717461        -0.931487         1.574168
 C        -4.194896        -0.502595         2.963628
 O        -4.556475        -1.337598         0.778572
 H         2.211494        -0.217101        -1.603145
 H         1.959921         1.269181        -0.745083
 H         2.785881        -0.052011         0.008411
 H        -2.286015        -1.583262        -0.528589
 H        -3.544477         0.397704        -1.003847
 H        -2.137211         1.381411        -0.190219
 H        -1.844910         0.684271        -1.755530
 H        -5.288310        -0.516571         2.973841
 H        -3.758752        -1.166011         3.705342
 H        -3.830131         0.523586         3.178064
