19
Iteration:  1704charge 0 multiplicity 1
 C         1.970031         0.520958        -0.323180
 C         0.508954         0.238495        -0.138857
 C        -0.562655        -0.188427         0.214950
 C        -1.938103        -0.649876        -0.011392
 C        -2.416638         0.242166        -1.180377
 O        -2.531426        -0.513257         1.434544
 C        -3.686037        -1.090321         1.640613
 C        -3.960342        -1.136216         3.102891
 O        -4.391949        -1.560106         0.697723
 H         2.565406        -0.213389         0.323117
 H         2.143980         0.292875        -1.328057
 H         2.453086         1.559476        -0.174172
 H        -2.037402        -1.713971        -0.389930
 H        -2.353223         1.329871        -0.791745
 H        -1.857333        -0.101492        -1.973893
 H        -3.541242         0.082197        -1.364265
 H        -4.917083        -1.552361         3.379821
 H        -3.166792        -1.866616         3.282378
 H        -3.620487        -0.210080         3.592658
