19
Iteration:  2043charge 0 multiplicity 1
 C         1.821259        -0.272961         0.133940
 C         0.377141         0.051691        -0.075550
 C        -0.790970        -0.095971        -0.065716
 C        -2.245192        -0.278697        -0.290822
 C        -2.606659         0.861019        -1.198176
 O        -2.921392        -0.031692         1.086332
 C        -3.463017        -1.249029         1.627976
 C        -3.915188        -0.816639         2.994735
 O        -3.342298        -2.331723         1.130006
 H         2.514924         0.389446        -0.244780
 H         1.951459        -0.307802         1.190999
 H         2.127903        -1.336636        -0.388873
 H        -2.421880        -1.309174        -0.768607
 H        -2.584117         1.865816        -0.756672
 H        -1.862479         1.008803        -2.070862
 H        -3.544760         0.650600        -1.713339
 H        -4.704327        -1.494410         3.502031
 H        -3.066772        -0.523112         3.665314
 H        -4.420341         0.137500         2.930410
