19
Iteration:  2525
 C         1.939300        -0.272397         0.062903
 C         0.400987        -0.234062         0.069587
 C        -0.839272        -0.333044         0.068499
 C        -2.213760        -0.213577        -0.377159
 C        -2.521371         0.928030        -1.255626
 O        -3.043402         0.045365         1.000180
 C        -3.513234        -1.030934         1.575873
 C        -3.799070        -0.942782         3.112578
 O        -3.490497        -2.167026         1.064384
 H         2.436733        -1.070311        -0.455608
 H         2.394944         0.743284        -0.000241
 H         2.152825        -0.525983         1.186952
 H        -2.668331        -1.170978        -0.691518
 H        -2.270551         1.925959        -0.746218
 H        -1.927402         0.718027        -2.118805
 H        -3.574767         0.860482        -1.477576
 H        -3.375486        -1.857156         3.559368
 H        -3.341571        -0.062059         3.538200
 H        -4.838942        -0.764552         3.407933
