19
Iteration:  1059charge 0 multiplicity 1
 C         1.862072         0.373152         0.091297
 C         0.416708         0.135482         0.232610
 C        -0.747478         0.029603        -0.159291
 C        -2.188743        -0.248695        -0.314653
 C        -2.882183         0.857165        -1.148395
 O        -2.758681        -0.294741         1.041424
 C        -3.399574        -1.389424         1.580100
 C        -3.871109        -1.084224         3.028888
 O        -3.505716        -2.468182         1.052678
 H         2.444935        -0.164956         0.879123
 H         2.129270        -0.254783        -0.860651
 H         2.195900         1.342176        -0.045631
 H        -2.256299        -1.246624        -0.646034
 H        -2.181357         1.660595        -1.144051
 H        -2.939293         0.521157        -2.211800
 H        -3.843116         1.137986        -0.771412
 H        -4.246394        -2.098215         3.303809
 H        -2.936592        -0.886331         3.622337
 H        -4.512997        -0.232436         2.965638
