19
Iteration:  1303charge 0 multiplicity 1
 C         1.556095        -0.377899         0.473987
 C         0.143040        -0.206622         0.029357
 C        -1.032782        -0.316279        -0.331754
 C        -2.522376        -0.088025        -0.405673
 C        -2.939480         1.229155        -1.131604
 O        -3.241910        -0.037624         0.821191
 C        -3.049250        -1.156806         1.582104
 C        -3.872638        -1.215853         2.847840
 O        -2.187474        -2.061015         1.344847
 H         2.222202        -0.416140        -0.380737
 H         1.808463         0.539200         1.231858
 H         1.559576        -1.290869         1.168837
 H        -2.915928        -0.910484        -1.053301
 H        -2.394139         2.068308        -0.598390
 H        -2.698847         1.135963        -2.123473
 H        -4.068763         1.382504        -0.998951
 H        -4.983970        -1.141094         2.706919
 H        -3.588723        -2.169218         3.441372
 H        -3.531402        -0.366954         3.490243
