19
Iteration:  3554
 C         1.832103        -0.095125         0.359207
 C         0.483160        -0.309633        -0.098287
 C        -0.661264        -0.650912        -0.442405
 C        -2.138543        -0.646100        -0.252312
 C        -2.801498         0.453340        -1.102896
 O        -2.428307        -0.212209         1.145763
 C        -3.489825        -0.839639         1.629590
 C        -3.645325        -0.533648         3.099184
 O        -4.139067        -1.578866         0.893516
 H         2.631689        -0.472079        -0.284228
 H         2.009884         1.082234         0.310893
 H         2.040137        -0.296017         1.463539
 H        -2.842700        -1.478732        -0.477360
 H        -3.954719         0.555522        -1.103167
 H        -2.395971         1.411764        -0.944615
 H        -2.448953         0.224678        -2.077977
 H        -4.442940         0.190081         3.339099
 H        -3.830404        -1.389965         3.699761
 H        -2.739450        -0.046755         3.447359
