19
Iteration:  4202
 C         1.223621        -1.626931         0.296100
 C         0.185886        -0.590079        -0.049591
 C        -0.874504         0.017689        -0.190443
 C        -2.326420         0.178171        -0.376208
 C        -2.925628         1.385456        -1.122677
 O        -2.993528         0.251811         0.988818
 C        -3.103608        -1.025915         1.574699
 C        -3.839164        -0.834475         2.871737
 O        -2.421374        -1.907907         1.266741
 H         0.587377        -2.514681         0.196308
 H         2.084744        -1.867216        -0.368110
 H         1.625210        -1.590129         1.393408
 H        -2.728718        -0.783759        -0.778181
 H        -4.068221         1.461557        -0.921826
 H        -2.351688         2.229263        -0.735673
 H        -2.733159         1.486065        -2.216149
 H        -4.775904        -0.290136         2.815565
 H        -4.000159        -1.788028         3.381452
 H        -3.146931        -0.201821         3.419203
