19
Iteration:  3707charge 0 multiplicity 1
 C         2.006869         0.318163        -0.358375
 C         0.713321        -0.366069        -0.108993
 C        -0.460891        -0.613602         0.016550
 C        -1.855994        -0.871360         0.054182
 C        -2.568404         0.065695        -1.048000
 O        -2.383175        -0.518234         1.421870
 C        -3.724420        -0.663714         1.615443
 C        -4.083637        -0.830341         3.055520
 O        -4.529398        -0.875135         0.743732
 H         2.326413        -0.054093        -1.334903
 H         1.896671         1.465923        -0.399685
 H         2.909885         0.063135         0.261035
 H        -2.037401        -1.996273        -0.100262
 H        -3.709915        -0.118063        -1.044513
 H        -2.512357         1.064729        -0.759363
 H        -2.183861        -0.084769        -2.046903
 H        -5.139222        -0.735213         3.255826
 H        -3.857165        -1.836489         3.330287
 H        -3.525817        -0.255457         3.798555
