19
Iteration:   913
 C         1.985363         0.781759        -0.220503
 C         0.551685         0.432775        -0.165571
 C        -0.537651         0.001253         0.183987
 C        -1.885399        -0.516970         0.028925
 C        -2.838320         0.268087        -0.919157
 O        -2.410532        -0.639403         1.427922
 C        -3.579386        -1.374950         1.511220
 C        -3.987422        -1.125032         2.923017
 O        -4.260068        -1.944090         0.639165
 H         2.201665         1.849064         0.238944
 H         2.608901         0.127402         0.319863
 H         2.361991         0.825412        -1.257481
 H        -1.782607        -1.465231        -0.442380
 H        -2.952868         1.314673        -0.705421
 H        -2.437223         0.018820        -1.923128
 H        -3.821528        -0.144325        -0.764318
 H        -4.145845         0.000078         3.029283
 H        -4.850639        -1.802770         3.055839
 H        -3.066544        -1.336367         3.595240
