19
Iteration:  3343charge 0 multiplicity 1
 C         1.731739        -0.987445         0.049969
 C         0.401226        -0.447669        -0.103565
 C        -0.788512        -0.189261        -0.064691
 C        -2.289216        -0.093052        -0.263612
 C        -2.707591         1.112538        -1.179223
 O        -3.037577         0.057371         0.883832
 C        -3.243104        -0.969109         1.807033
 C        -4.494992        -0.675938         2.620339
 O        -2.605118        -1.993333         1.655852
 H         1.567748        -2.038557        -0.099007
 H         2.491755        -0.697102        -0.743135
 H         2.216006        -0.591174         0.934614
 H        -2.445452        -1.051048        -0.829246
 H        -3.738013         0.912402        -1.156428
 H        -2.343371         2.211701        -1.061133
 H        -2.464011         0.788664        -2.260790
 H        -5.000594         0.170627         2.161852
 H        -5.033489        -1.596127         2.667515
 H        -4.352002        -0.458988         3.698584
