19
Iteration:  2706charge 0 multiplicity 1
 C         2.211865         0.006528        -0.073311
 C         0.694762        -0.193446        -0.121045
 C        -0.528347        -0.323670        -0.058156
 C        -2.000942        -0.483257        -0.111514
 C        -2.859689         0.494363        -0.929363
 O        -2.518127        -0.296840         1.354338
 C        -3.727936        -1.025531         1.550820
 C        -4.034910        -0.662716         2.984698
 O        -4.174752        -1.783799         0.754587
 H         2.319233         0.793609        -0.783371
 H         2.474452         0.387019         0.934759
 H         2.796668        -0.893310        -0.340610
 H        -2.108278        -1.529417        -0.436769
 H        -3.617686         1.021737        -0.434849
 H        -2.203970         1.345932        -1.208533
 H        -3.148242        -0.081195        -1.853503
 H        -4.467352         0.353312         2.833122
 H        -4.825949        -1.394744         3.189722
 H        -3.297276        -0.797313         3.771466
