19
Iteration:  2134
 C         1.640261        -0.446936         0.282929
 C         0.258055        -0.233193         0.033072
 C        -0.923341        -0.347190        -0.148366
 C        -2.410520        -0.167805        -0.354373
 C        -2.767310         1.110200        -1.203595
 O        -2.853978         0.080784         1.070113
 C        -3.088346        -1.179579         1.659389
 C        -4.093560        -0.828258         2.807757
 O        -2.811203        -2.244154         1.182666
 H         2.041430         0.559262         0.613251
 H         1.760634        -1.197189         1.108570
 H         2.138819        -0.664059        -0.611434
 H        -3.063253        -1.091477        -0.587158
 H        -2.238921         2.014368        -0.880290
 H        -2.587888         1.013169        -2.259412
 H        -3.884229         1.342821        -1.063913
 H        -3.625020        -1.091680         3.729885
 H        -4.511604         0.163650         2.586607
 H        -4.842245        -1.661625         2.721796
