19
Iteration:  1980
 C         2.003384         0.121787         0.000247
 C         0.546556        -0.367717         0.127140
 C        -0.669627        -0.203441        -0.033407
 C        -2.155959        -0.297240        -0.188788
 C        -2.731703         0.729724        -1.252109
 O        -2.887116        -0.050204         1.031668
 C        -3.516599        -1.137500         1.625269
 C        -3.904946        -0.907942         3.104014
 O        -3.662434        -2.140090         1.005023
 H         2.177768         0.837890        -0.830794
 H         2.249722         0.726957         0.898156
 H         2.731158        -0.637042         0.101544
 H        -2.489648        -1.325783        -0.570701
 H        -2.268690         1.632617        -1.269606
 H        -2.545108         0.090379        -2.209015
 H        -3.830603         0.810151        -1.109035
 H        -4.984914        -0.704115         3.136359
 H        -3.892626        -1.899111         3.602421
 H        -3.311637        -0.079990         3.397624
