19
Iteration:   621charge 0 multiplicity 1
 C         1.919717         0.476963         0.171798
 C         0.456033         0.283603         0.001501
 C        -0.731463         0.177082        -0.208569
 C        -2.136429        -0.276873        -0.243005
 C        -3.057122         0.557842        -1.065510
 O        -2.695421        -0.257906         1.095327
 C        -3.334744        -1.401750         1.572739
 C        -3.808861        -1.222566         3.002835
 O        -3.610731        -2.417307         0.998713
 H         2.549148        -0.325936         0.116542
 H         2.325861         1.219196        -0.619622
 H         2.153610         1.004585         1.164953
 H        -2.107327        -1.354356        -0.617933
 H        -3.156370         1.550686        -0.633834
 H        -2.636081         0.781852        -2.102668
 H        -3.993738         0.033474        -1.195069
 H        -4.818755        -0.880057         2.900063
 H        -3.902303        -2.163840         3.410175
 H        -3.296593        -0.540814         3.608293
