19
Iteration:  3778charge 0 multiplicity 1
 C         1.886208         0.220253        -0.555503
 C         0.723173        -0.310732        -0.113534
 C        -0.417193        -0.645235         0.200012
 C        -1.951141        -0.794311        -0.015143
 C        -2.268455         0.489530        -0.885273
 O        -2.426508        -0.731131         1.385461
 C        -3.782668        -0.851618         1.647077
 C        -4.223040        -0.552185         3.041167
 O        -4.467199        -1.225981         0.772941
 H         2.007660        -0.213881        -1.624253
 H         1.708360         1.285455        -0.709694
 H         2.902856         0.078602        -0.150376
 H        -2.149325        -1.782007        -0.351153
 H        -3.270866         0.780365        -1.117406
 H        -1.792546         1.396714        -0.406402
 H        -1.745285         0.188293        -1.775508
 H        -5.336892        -0.570970         2.957734
 H        -3.899151        -1.309385         3.801842
 H        -3.842577         0.448977         3.347614
