19
Iteration:  3028charge 0 multiplicity 1
 C         1.979032        -0.430544         0.255229
 C         0.541607        -0.345697         0.100552
 C        -0.641876        -0.179583        -0.091190
 C        -2.180074        -0.269759        -0.320020
 C        -2.680891         0.775522        -1.368147
 O        -2.846131        -0.020747         1.014315
 C        -3.565980        -0.971765         1.630975
 C        -3.789531        -0.753119         3.077163
 O        -3.851710        -2.017232         1.070950
 H         2.252365        -0.273887         1.242999
 H         2.432577        -1.389040        -0.077373
 H         2.386510         0.362518        -0.492348
 H        -2.473005        -1.357780        -0.583921
 H        -3.727371         0.838699        -1.515486
 H        -2.380965         1.802118        -1.003182
 H        -2.059262         0.412089        -2.284160
 H        -2.793640        -0.531559         3.627495
 H        -4.348406         0.217172         3.179753
 H        -4.185997        -1.704177         3.447560
