19
Iteration:  2641charge 0 multiplicity 1
 C         1.965898        -0.181456         0.218542
 C         0.536406        -0.074763        -0.115302
 C        -0.665225        -0.148967        -0.268375
 C        -2.050821        -0.376703        -0.221850
 C        -2.814820         0.800462        -1.018314
 O        -2.413354        -0.458243         1.183872
 C        -3.528338        -1.112761         1.579517
 C        -4.035755        -0.535164         2.961256
 O        -3.986566        -2.103431         0.988694
 H         2.628143        -0.071316        -0.759639
 H         2.252390         0.519828         0.975757
 H         2.416380        -1.104113         0.501064
 H        -2.249619        -1.275416        -0.808642
 H        -2.891650         1.779934        -0.520226
 H        -2.158857         0.996235        -1.969052
 H        -3.902758         0.554918        -1.379779
 H        -3.410007         0.360204         3.214014
 H        -5.137397        -0.325662         2.834365
 H        -4.134919        -1.247000         3.844275
