19
Iteration:   500charge 0 multiplicity 1
 C         1.589172         0.431376         0.111800
 C         0.235371        -0.076244         0.068217
 C        -0.956080        -0.181114        -0.109508
 C        -2.400522        -0.156813        -0.232507
 C        -2.748142         1.021617        -1.196235
 O        -2.990630        -0.168805         0.992605
 C        -3.093940        -1.396205         1.644427
 C        -3.891780        -1.243902         2.925481
 O        -2.856263        -2.470056         1.188622
 H         1.991346         0.514558         1.070329
 H         2.378319        -0.097480        -0.540535
 H         1.628961         1.590939        -0.244411
 H        -2.676553        -1.114813        -0.752213
 H        -2.677190         1.983706        -0.720968
 H        -1.967921         1.215603        -1.979014
 H        -3.754237         0.878519        -1.661337
 H        -3.725254        -0.449142         3.587767
 H        -4.908872        -1.367350         2.649774
 H        -3.632603        -2.076165         3.477256
