19
Iteration:  4379
 C         1.900693        -0.650962        -0.444714
 C         0.457465        -0.599993        -0.142667
 C        -0.756845        -0.614113        -0.034580
 C        -2.120145        -0.209828        -0.220965
 C        -2.262089         1.249937        -0.879354
 O        -2.811480        -0.018815         1.097891
 C        -3.592178        -1.013601         1.707296
 C        -4.056587        -0.461567         3.072818
 O        -3.771556        -2.084095         1.223073
 H         2.557488        -1.061458         0.416020
 H         1.989021        -1.224120        -1.418118
 H         2.226406         0.417581        -0.833780
 H        -2.856053        -0.952072        -0.689416
 H        -3.208399         1.739876        -0.625508
 H        -1.523876         1.924931        -0.566101
 H        -2.286008         1.151134        -1.993444
 H        -4.293370        -1.291468         3.719202
 H        -3.225111         0.102341         3.457907
 H        -5.003678         0.091753         3.034957
