19
Iteration:  1623charge 0 multiplicity 1
 C         2.032633         0.378632        -0.108668
 C         0.619406         0.052009        -0.062151
 C        -0.585040        -0.095535        -0.089553
 C        -1.967619        -0.423039        -0.128059
 C        -2.990633         0.384441        -0.946636
 O        -2.399359        -0.414079         1.370410
 C        -3.512738        -1.211484         1.600172
 C        -4.043365        -0.989658         2.963576
 O        -4.082782        -1.881459         0.740869
 H         2.335152         0.514678         0.873949
 H         2.758869        -0.383984        -0.570330
 H         2.058163         1.413314        -0.596996
 H        -2.085199        -1.444547        -0.597337
 H        -3.097696         1.334200        -0.514262
 H        -2.615849         0.533522        -2.041334
 H        -3.819747        -0.223763        -0.888230
 H        -4.202736         0.130197         3.017435
 H        -4.984892        -1.540900         3.274487
 H        -3.360644        -1.089318         3.836921
