19
Iteration:  1209charge 0 multiplicity 1
 C         1.595969        -0.298422         0.368747
 C         0.205415        -0.068334         0.083779
 C        -0.986258        -0.014689        -0.083725
 C        -2.367510        -0.121450        -0.480076
 C        -2.971736         1.123191        -1.125120
 O        -3.267941        -0.242538         0.734122
 C        -3.098336        -1.227310         1.589872
 C        -3.738133        -1.028433         3.007926
 O        -2.486868        -2.241083         1.225571
 H         1.984820        -1.369771        -0.003024
 H         2.222942         0.454795         0.082890
 H         1.637330        -0.293233         1.512897
 H        -2.521708        -1.024625        -1.073023
 H        -3.243004         1.689906        -0.163964
 H        -2.349883         1.691795        -1.784682
 H        -3.912675         0.856144        -1.666512
 H        -3.330400        -0.087343         3.341848
 H        -4.795379        -1.028367         2.839465
 H        -3.369652        -1.868035         3.533082
