19
Iteration:  4406
 C         2.035826        -0.649284        -0.451117
 C         0.517442        -0.670364        -0.194088
 C        -0.655158        -0.462836        -0.119592
 C        -2.112741        -0.240268        -0.096255
 C        -2.541434         1.035167        -0.818952
 O        -2.672436        -0.023667         1.195359
 C        -3.531698        -0.898005         1.714597
 C        -4.051220        -0.500869         3.011860
 O        -3.935036        -1.937563         1.095042
 H         2.470838        -0.907998         0.475036
 H         2.121052        -1.451280        -1.160819
 H         2.360861         0.259715        -0.855052
 H        -2.688603        -1.055428        -0.426819
 H        -3.618591         1.329713        -0.769847
 H        -2.088036         2.018201        -0.346431
 H        -2.176459         0.914837        -1.838587
 H        -4.106142        -1.387424         3.701253
 H        -3.465466         0.307661         3.500407
 H        -5.125984        -0.349695         2.843337
