19
Iteration:  3900charge 0 multiplicity 1
 C         1.991805        -0.565661        -0.156036
 C         0.587460        -0.286309        -0.158699
 C        -0.591917        -0.194020        -0.148810
 C        -2.007295        -0.316339        -0.121568
 C        -2.799953         0.804364        -0.806908
 O        -2.494698        -0.152486         1.324146
 C        -3.529541        -0.968507         1.593890
 C        -4.086010        -0.658145         2.985929
 O        -4.009534        -1.836727         0.797655
 H         2.303681        -1.371455        -0.966609
 H         2.805157         0.197859        -0.298788
 H         2.329703        -1.049230         0.781463
 H        -2.438803        -1.255826        -0.509716
 H        -3.787657         0.553430        -0.279130
 H        -2.545566         1.806129        -0.638441
 H        -2.928881         0.529033        -1.839685
 H        -4.515291        -1.578558         3.420899
 H        -3.209447        -0.321529         3.575956
 H        -4.818687         0.207482         2.868488
