19
Iteration:  1041charge 0 multiplicity 1
 C         1.930646         0.378275         0.058986
 C         0.492485         0.244991         0.061485
 C        -0.692976        -0.073078        -0.012441
 C        -2.132968        -0.278287        -0.281500
 C        -2.889446         0.818719        -1.111097
 O        -2.787684        -0.300873         1.063264
 C        -3.410779        -1.397756         1.577732
 C        -3.899734        -1.107060         3.046259
 O        -3.606048        -2.426614         0.998163
 H         2.425863         0.262114         0.969542
 H         2.527787        -0.166687        -0.734265
 H         2.214472         1.529024        -0.181935
 H        -2.361149        -1.291272        -0.838215
 H        -2.499512         1.849545        -0.974674
 H        -2.979614         0.505358        -2.251249
 H        -3.946361         0.617285        -0.863668
 H        -4.694794        -1.815249         3.269095
 H        -3.072131        -1.223135         3.736623
 H        -4.180545        -0.011186         3.134746
