19
Iteration:  3608charge 0 multiplicity 1
 C         2.116122        -0.072528         0.259148
 C         0.710942        -0.175082        -0.084714
 C        -0.511519        -0.219027        -0.243382
 C        -1.969484        -0.629369        -0.254960
 C        -2.935494         0.120585        -1.286976
 O        -2.414865        -0.504834         1.115427
 C        -3.675709        -0.850331         1.631334
 C        -3.666108        -0.683726         3.186526
 O        -4.575447        -1.195827         0.969237
 H         2.674479        -0.596066        -0.543489
 H         2.570848         0.996808         0.219229
 H         2.487520        -0.638008         1.151808
 H        -2.262201        -1.570855        -0.606755
 H        -3.973255        -0.295478        -1.131436
 H        -2.863054         1.141500        -1.142629
 H        -2.771920        -0.072356        -2.303639
 H        -4.461698        -0.031460         3.565883
 H        -3.801126        -1.601961         3.699156
 H        -2.697737        -0.324014         3.567283
