19
Iteration:  2952
 C         1.983153         0.146095         0.073866
 C         0.573832        -0.386897         0.059311
 C        -0.590020        -0.586551        -0.235434
 C        -2.002683        -0.560013        -0.208294
 C        -2.533908         0.672179        -1.073260
 O        -2.499758        -0.330052         1.160282
 C        -3.658276        -1.002280         1.609368
 C        -3.836052        -0.667005         3.033875
 O        -4.402809        -1.672383         0.915162
 H         2.254527         0.966144         0.771941
 H         2.602118        -0.703930         0.174750
 H         2.147910         0.651167        -0.829671
 H        -2.316879        -1.546087        -0.579836
 H        -3.558698         0.551509        -1.035562
 H        -2.116108         1.548280        -0.527349
 H        -2.142957         0.629620        -2.138793
 H        -3.147361        -1.211908         3.726097
 H        -3.751959         0.409578         3.274093
 H        -4.880241        -0.985686         3.161027
