19
Iteration:  3865charge 0 multiplicity 1
 C         2.122678        -0.379907        -0.303005
 C         0.667981        -0.201054        -0.292442
 C        -0.561844        -0.239105        -0.161002
 C        -1.967154        -0.406882        -0.024819
 C        -2.715484         0.714673        -0.834990
 O        -2.288942        -0.482882         1.497375
 C        -3.584747        -0.979274         1.700849
 C        -4.283162        -0.579514         2.899436
 O        -4.250791        -1.657161         0.836456
 H         2.367971        -1.162956        -1.153800
 H         2.653501         0.604445        -0.334924
 H         2.211572        -0.927059         0.700152
 H        -2.472141        -1.248100        -0.527354
 H        -3.751294         0.473127        -0.711887
 H        -2.519208         1.754401        -0.527097
 H        -2.531637         0.665153        -1.879590
 H        -5.197515        -1.191594         2.956232
 H        -3.691978        -0.684587         3.820005
 H        -4.666608         0.475567         2.835230
