19
Iteration:   292
 C         1.540877        -0.036718         0.389737
 C         0.058011        -0.026882         0.196462
 C        -1.077081         0.047250        -0.225266
 C        -2.535680        -0.083696        -0.472048
 C        -3.052954         1.195538        -1.174505
 O        -3.259969        -0.306858         0.860175
 C        -2.948311        -1.384903         1.586283
 C        -3.836633        -1.342188         2.807568
 O        -2.083105        -2.197377         1.370711
 H         1.979783         0.447389        -0.414983
 H         1.952549         0.215409         1.408994
 H         1.634683        -1.264450         0.173637
 H        -2.740596        -0.989481        -1.043634
 H        -2.413518         2.018550        -0.609465
 H        -2.611339         1.215932        -2.188042
 H        -4.216633         1.450099        -1.105043
 H        -3.906110        -2.362146         3.160051
 H        -3.271777        -0.603289         3.400299
 H        -4.767320        -0.825359         2.549220
