19
Iteration:  1265charge 0 multiplicity 1
 C         1.399148        -0.382006         0.385418
 C         0.032387        -0.175746         0.213664
 C        -1.116264        -0.092302        -0.115519
 C        -2.488267        -0.045769        -0.475965
 C        -2.845042         1.216299        -1.132965
 O        -3.242780        -0.244259         0.681597
 C        -2.977798        -1.237434         1.597239
 C        -3.838881        -1.070391         2.930973
 O        -2.146340        -2.154940         1.295086
 H         1.975679        -0.912134        -0.553646
 H         1.860989         0.528529         0.497991
 H         1.737485        -0.999872         1.196178
 H        -2.694865        -0.932314        -1.073131
 H        -2.181047         1.988308        -0.764001
 H        -2.700881         1.172085        -2.277292
 H        -3.800451         1.603217        -0.882872
 H        -4.496318        -0.190742         2.896567
 H        -4.403300        -1.969648         3.063872
 H        -3.129856        -0.796125         3.751758
