19
Iteration:  1831charge 0 multiplicity 1
 C         1.998038         0.493601        -0.026267
 C         0.594421         0.183168        -0.091055
 C        -0.533797        -0.273993        -0.233384
 C        -1.919059        -0.716589        -0.142926
 C        -2.871421         0.315813        -0.926661
 O        -2.298582        -0.641503         1.339850
 C        -3.564868        -1.102396         1.565280
 C        -4.062315        -0.728589         2.996573
 O        -4.272586        -1.712318         0.823023
 H         2.508768        -0.283305        -0.571567
 H         2.476011         1.473753        -0.362222
 H         2.352634         0.225376         0.974832
 H        -2.117887        -1.639656        -0.653981
 H        -2.608705         1.256849        -0.469962
 H        -2.608916         0.400882        -2.019951
 H        -3.901871        -0.124961        -0.675042
 H        -3.249896        -0.674576         3.740045
 H        -4.694157         0.215566         2.984494
 H        -4.810226        -1.582804         3.066789
