19
Iteration:  2577
 C         1.868386        -0.144611         0.231010
 C         0.433855        -0.346865         0.030853
 C        -0.751733        -0.331663        -0.165895
 C        -2.136203        -0.294720        -0.244323
 C        -2.754822         0.890535        -1.254445
 O        -2.614586        -0.082649         1.171695
 C        -3.454561        -1.064895         1.558017
 C        -3.991596        -0.813449         3.044060
 O        -3.648119        -2.093400         0.934397
 H         2.386716        -0.349492        -0.851889
 H         2.110048         0.881546         0.337515
 H         2.288969        -0.724225         0.998657
 H        -2.533329        -1.331749        -0.381332
 H        -2.029438         1.701341        -1.228043
 H        -2.966012         0.388226        -2.194381
 H        -3.689665         1.326514        -0.809910
 H        -3.107524        -0.912893         3.723095
 H        -4.167518         0.275659         3.143739
 H        -4.746651        -1.512656         3.489552
