19
Iteration:  1021charge 0 multiplicity 1
 C         1.926882         0.490550         0.037054
 C         0.507502         0.197029        -0.153181
 C        -0.672310        -0.056024        -0.019062
 C        -2.109509        -0.334549        -0.110535
 C        -2.839323         0.650260        -1.014752
 O        -2.794793        -0.230870         1.160695
 C        -3.458605        -1.384334         1.551494
 C        -3.888213        -1.108201         2.933155
 O        -3.672811        -2.386039         0.930109
 H         2.139970         0.425033         1.136023
 H         2.521941        -0.210400        -0.471337
 H         2.379574         1.527597        -0.295332
 H        -2.313359        -1.352854        -0.578046
 H        -2.642803         1.604635        -0.471068
 H        -2.468120         0.740729        -2.076061
 H        -3.922352         0.433115        -1.207577
 H        -4.871446        -1.482281         3.172219
 H        -3.196723        -1.571388         3.622741
 H        -3.844600        -0.051763         3.341466
