19
Iteration:  2223
 C         1.571767        -0.637826         0.219838
 C         0.163040        -0.435059         0.207680
 C        -1.009226        -0.246588        -0.001925
 C        -2.457712        -0.082520        -0.459047
 C        -2.697177         1.302025        -1.050846
 O        -3.245040        -0.081380         0.764358
 C        -3.180107        -1.180563         1.568550
 C        -3.876900        -0.808367         2.734129
 O        -2.442028        -2.134536         1.384060
 H         2.094868        -0.170247         1.142085
 H         1.917698        -1.693646         0.142567
 H         1.948062        -0.136498        -0.571732
 H        -2.778102        -0.839196        -1.264772
 H        -2.582100         1.993987        -0.141254
 H        -1.953289         1.391832        -1.772101
 H        -3.695968         1.504967        -1.342105
 H        -3.614971         0.244875         2.854860
 H        -4.958019        -0.843513         2.595065
 H        -3.632912        -1.277309         3.684932
