19
Iteration:    27charge 0 multiplicity 1
 C         1.875087         0.807098         0.186114
 C         0.527429         0.237547        -0.066116
 C        -0.681279         0.165246        -0.189309
 C        -2.085309        -0.269380        -0.216928
 C        -3.080688         0.608685        -0.946580
 O        -2.497775        -0.417140         1.284939
 C        -3.379081        -1.443251         1.528998
 C        -3.896390        -1.447867         2.995891
 O        -3.719743        -2.345593         0.746866
 H         2.303989         0.658855         1.156495
 H         2.674592         0.344134        -0.484032
 H         1.886959         2.078196        -0.146222
 H        -2.304600        -1.289322        -0.573332
 H        -3.679569         1.470305        -0.540070
 H        -2.472062         0.861038        -1.954696
 H        -4.020939         0.046877        -1.296701
 H        -4.768387        -2.102296         2.905232
 H        -3.304944        -1.647865         3.902374
 H        -4.278471        -0.465878         3.331420
