19
Iteration:   575
 C         1.750047         0.526056         0.092689
 C         0.347143         0.304936         0.021590
 C        -0.801175        -0.088921         0.089694
 C        -2.239252        -0.309459        -0.272881
 C        -2.847835         0.843387        -1.165079
 O        -2.861988        -0.289218         1.007306
 C        -3.353750        -1.449036         1.572318
 C        -3.758372        -1.133319         3.045950
 O        -3.323635        -2.529397         1.007546
 H         2.132375        -0.436868         0.566156
 H         2.258090         0.533434        -0.938372
 H         2.092230         1.325291         0.712490
 H        -2.382459        -1.296488        -0.839512
 H        -2.405123         1.767689        -0.845372
 H        -2.494240         0.769564        -2.250175
 H        -3.962945         0.842503        -1.228267
 H        -4.212938        -0.139548         3.140987
 H        -4.472313        -1.839724         3.514220
 H        -2.842171        -1.108578         3.638618
