19
Iteration:   276charge 0 multiplicity 1
 C         1.550620        -0.062160         0.412853
 C         0.095764         0.118600         0.131762
 C        -1.058822        -0.083717        -0.216942
 C        -2.533226        -0.144962        -0.445149
 C        -3.052785         1.166746        -0.985658
 O        -3.265024        -0.291089         0.741571
 C        -2.946796        -1.374897         1.571701
 C        -3.818036        -1.232238         2.798075
 O        -2.131196        -2.242944         1.310821
 H         2.261579         0.383516        -0.413505
 H         1.844779         0.505883         1.288003
 H         1.896134        -1.013122         0.540488
 H        -2.765901        -1.004907        -1.115639
 H        -2.629539         2.012393        -0.564225
 H        -2.948781         1.189453        -2.077168
 H        -4.081329         1.164821        -0.876228
 H        -4.130869        -2.203321         3.241171
 H        -3.289037        -0.831745         3.662302
 H        -4.728167        -0.653375         2.591491
