19
Iteration:  3044charge 0 multiplicity 1
 C         1.964258        -0.523367         0.247304
 C         0.446312        -0.385283         0.165737
 C        -0.732869        -0.183516        -0.052837
 C        -2.148919        -0.192184        -0.309183
 C        -2.745466         0.756472        -1.362620
 O        -2.856043         0.101482         0.985384
 C        -3.435610        -0.981856         1.583835
 C        -3.816629        -0.722174         3.069178
 O        -3.669318        -2.080925         1.029024
 H         2.413400        -0.349194         1.293041
 H         2.157343        -1.520523        -0.137927
 H         2.511085         0.274261        -0.146298
 H        -2.501718        -1.189719        -0.549352
 H        -3.877461         0.602810        -1.244351
 H        -2.379024         1.763954        -1.223892
 H        -2.591838         0.554991        -2.383965
 H        -2.924749        -0.422236         3.557904
 H        -4.595729        -0.001433         3.266619
 H        -4.282829        -1.587124         3.556848
