19
Iteration:  3370
 C         1.784264        -0.902880        -0.068501
 C         0.406868        -0.377657         0.007022
 C        -0.780916        -0.179048        -0.035734
 C        -2.282906        -0.207094        -0.217615
 C        -2.599158         0.921394        -1.262079
 O        -3.020111         0.267837         1.053688
 C        -3.397642        -0.955389         1.669789
 C        -4.409004        -0.733110         2.668041
 O        -2.750561        -2.009826         1.527867
 H         1.700028        -2.030872        -0.195766
 H         2.440377        -0.526190        -0.835154
 H         2.213601        -0.793411         1.021894
 H        -2.538128        -1.250969        -0.511340
 H        -3.789905         0.781786        -1.378397
 H        -2.216693         1.895405        -1.016486
 H        -2.248552         0.612993        -2.211655
 H        -5.063161         0.135127         2.423240
 H        -4.991511        -1.634760         3.021667
 H        -3.910126        -0.426952         3.585283
