19
Iteration:  1590charge 0 multiplicity 1
 C         1.900506         0.305031         0.019086
 C         0.489345         0.180502        -0.194608
 C        -0.689849        -0.142098        -0.140470
 C        -2.033109        -0.476702        -0.179380
 C        -2.778643         0.594277        -0.862066
 O        -2.464614        -0.460853         1.278167
 C        -3.567150        -1.201072         1.591490
 C        -3.969093        -0.839508         2.968614
 O        -3.914846        -2.152437         0.834291
 H         2.028521         0.753970         0.953698
 H         2.558428        -0.640679        -0.118522
 H         2.375857         1.141807        -0.626040
 H        -2.267113        -1.496588        -0.639196
 H        -2.645892         1.552859        -0.464340
 H        -2.424756         0.696520        -1.971916
 H        -3.806168         0.469079        -0.934519
 H        -3.732517         0.269193         3.071762
 H        -5.063963        -0.877745         3.215040
 H        -3.276069        -1.454683         3.599625
