19
Iteration:  3289
 C         1.620272        -0.950081         0.205477
 C         0.243500        -0.626916        -0.003011
 C        -0.914771        -0.346979        -0.329100
 C        -2.349275        -0.012976        -0.534257
 C        -2.597708         1.349186        -1.133094
 O        -3.156266        -0.071007         0.762828
 C        -3.181401        -0.996110         1.831271
 C        -4.420129        -0.713933         2.646342
 O        -2.359986        -1.930210         1.852156
 H         1.787092        -1.998930         0.410509
 H         2.197382        -0.680839        -0.735659
 H         2.085189        -0.242868         0.964740
 H        -2.653106        -0.908284        -1.130906
 H        -3.613057         1.562117        -1.488201
 H        -2.479419         2.169816        -0.232173
 H        -1.808564         1.512467        -2.011753
 H        -4.980850         0.191769         2.402298
 H        -5.045158        -1.559779         2.406282
 H        -4.106822        -0.788799         3.708572
