19
Iteration:  4248charge 0 multiplicity 1
 C         1.406623        -1.414588         0.057478
 C         0.221130        -0.574416        -0.084810
 C        -0.903820        -0.086523        -0.194420
 C        -2.355677         0.092069        -0.363839
 C        -2.612258         1.448542        -1.107672
 O        -3.020288         0.216321         1.021605
 C        -3.162014        -0.974456         1.697041
 C        -3.959257        -0.759801         2.900588
 O        -2.713801        -2.120096         1.390641
 H         1.325893        -2.502696         0.261702
 H         1.948330        -1.340755        -0.886346
 H         2.179693        -1.009343         0.736091
 H        -2.900888        -0.734725        -0.736671
 H        -3.724372         1.846752        -0.955051
 H        -1.845854         2.175404        -0.901498
 H        -2.403885         1.191020        -2.218808
 H        -5.026679        -0.914496         2.667964
 H        -3.721437        -1.556810         3.606279
 H        -3.781507         0.214358         3.307841
