19
Iteration:  1168
 C         1.576928        -0.122147         0.371481
 C         0.178169        -0.067403         0.112228
 C        -0.973394        -0.122914        -0.197731
 C        -2.379376        -0.058386        -0.391124
 C        -3.003269         1.079317        -1.276206
 O        -2.958430        -0.101000         1.012357
 C        -3.091332        -1.316209         1.636233
 C        -3.795001        -1.043937         2.918967
 O        -2.683580        -2.405750         1.129050
 H         2.093986        -1.164937         0.427105
 H         2.136475         0.486906        -0.361277
 H         1.842376         0.280956         1.263710
 H        -2.625288        -1.017680        -0.778352
 H        -3.402769         1.864919        -0.748162
 H        -2.209832         1.437193        -1.987842
 H        -3.796598         0.769556        -1.871217
 H        -3.169935        -0.806991         3.838429
 H        -4.593921        -0.283723         2.827371
 H        -4.233005        -1.984356         3.359708
