19
Iteration:  4286charge 0 multiplicity 1
 C         1.695777        -1.065926        -0.140615
 C         0.179245        -0.848089        -0.103266
 C        -0.961125        -0.488735        -0.170137
 C        -2.370375        -0.000934        -0.276037
 C        -2.460717         1.407371        -0.931028
 O        -3.021392         0.213818         1.027138
 C        -3.195416        -0.903082         1.710724
 C        -4.021896        -0.639355         2.909750
 O        -2.944940        -2.057146         1.310074
 H         2.075862        -1.916175         0.394610
 H         1.958076        -0.990648        -1.206863
 H         2.025635        -0.163215         0.405071
 H        -2.754921        -0.809844        -0.951286
 H        -3.444158         1.670986        -1.225511
 H        -2.186523         2.320739        -0.269904
 H        -1.910131         1.336548        -1.858509
 H        -4.965911        -1.200623         2.802829
 H        -3.503992        -1.062440         3.800892
 H        -4.307973         0.436191         3.048874
