19
Iteration:  4829
 C         2.015512        -0.693636        -0.557542
 C         0.580034        -0.560565        -0.251538
 C        -0.650014        -0.498027        -0.139503
 C        -2.109267        -0.215756        -0.056067
 C        -2.383384         0.918556        -1.114810
 O        -2.572821        -0.007092         1.446682
 C        -3.634677        -0.867398         1.791291
 C        -4.174318        -0.675183         3.256713
 O        -4.043439        -1.736065         0.958397
 H         2.135851         0.080727        -1.310121
 H         2.544829        -0.294911         0.280672
 H         2.359882        -1.682784        -0.902076
 H        -2.538137        -1.113783        -0.453053
 H        -3.442725         1.368576        -0.850764
 H        -1.749253         1.863634        -0.959266
 H        -2.453626         0.463093        -2.085476
 H        -3.904771        -1.514980         3.955607
 H        -3.646483         0.091436         3.828175
 H        -5.278476        -0.594896         3.203462
