19
Iteration:   726charge 0 multiplicity 1
 C         1.936729         0.794887         0.010233
 C         0.525558         0.416472        -0.037857
 C        -0.577641        -0.034505        -0.039594
 C        -1.942265        -0.448241        -0.096853
 C        -2.896512         0.318648        -1.020980
 O        -2.446491        -0.503965         1.239491
 C        -3.498064        -1.411382         1.524172
 C        -3.812568        -1.176541         2.976763
 O        -4.229008        -2.073593         0.781835
 H         2.554423         0.782732        -1.045166
 H         1.983346         1.808164         0.397173
 H         2.485063         0.123879         0.751919
 H        -2.005654        -1.450884        -0.474675
 H        -2.947105         1.375700        -0.975750
 H        -2.664426        -0.037279        -2.065038
 H        -3.930278         0.081249        -0.766195
 H        -3.992658        -2.183612         3.561126
 H        -2.919357        -0.590982         3.507488
 H        -4.684471        -0.526039         3.292161
