19
Iteration:  2032charge 0 multiplicity 1
 C         1.818182        -0.228707         0.105321
 C         0.376126         0.085145        -0.006279
 C        -0.832276        -0.132793        -0.015112
 C        -2.222200        -0.352758        -0.249936
 C        -2.605290         0.822034        -1.234256
 O        -2.904809        -0.068384         1.058484
 C        -3.378642        -1.179065         1.648182
 C        -3.911877        -0.789498         3.021137
 O        -3.411956        -2.289429         1.048528
 H         2.303295         0.476426        -0.470509
 H         2.232436        -0.188925         1.090165
 H         2.059795        -1.318891        -0.344786
 H        -2.576829        -1.392814        -0.542641
 H        -2.431410         1.725886        -0.618820
 H        -1.851624         0.764543        -2.091346
 H        -3.636341         0.880705        -1.564996
 H        -4.761008        -1.513359         3.228340
 H        -3.087343        -0.982989         3.760787
 H        -4.213054         0.244265         2.934708
