19
Iteration:  2594charge 0 multiplicity 1
 C         1.962066        -0.125054         0.230959
 C         0.558695        -0.286016        -0.054140
 C        -0.663016        -0.352594        -0.219803
 C        -2.172322        -0.280683        -0.290260
 C        -2.807376         0.813031        -1.046057
 O        -2.645751        -0.118135         1.094124
 C        -3.481135        -1.123473         1.641766
 C        -3.951147        -0.714305         2.967777
 O        -3.754611        -2.075342         0.967373
 H         2.613475        -0.352877        -0.543843
 H         2.112037         0.870783         0.760968
 H         2.321326        -0.899642         1.016049
 H        -2.638777        -1.156696        -0.744657
 H        -2.214111         1.718325        -1.171468
 H        -3.070658         0.407849        -2.078289
 H        -3.733445         1.091185        -0.501930
 H        -3.146760        -0.646487         3.681439
 H        -4.661213         0.111159         2.955998
 H        -4.620973        -1.560511         3.191652
