19
Iteration:  1301
 C         1.551128        -0.390834         0.488216
 C         0.134455        -0.186988         0.053341
 C        -1.025342        -0.331969        -0.333016
 C        -2.537355        -0.077184        -0.418493
 C        -2.943152         1.221725        -1.116015
 O        -3.253675        -0.034310         0.813286
 C        -3.046497        -1.150106         1.574949
 C        -3.856193        -1.218059         2.831457
 O        -2.185162        -2.065404         1.351468
 H         2.243307        -0.419789        -0.485528
 H         1.846479         0.520050         1.156103
 H         1.600152        -1.215298         1.118094
 H        -2.913586        -0.911337        -0.990472
 H        -2.364623         1.969791        -0.625887
 H        -2.712100         1.182901        -2.175405
 H        -4.002544         1.383944        -0.971731
 H        -4.957195        -1.100999         2.676798
 H        -3.636469        -2.136660         3.468810
 H        -3.478585        -0.411378         3.541135
