19
Iteration:  2422
 C         1.752126        -0.563931         0.359971
 C         0.350331        -0.298698         0.024378
 C        -0.869913        -0.211763        -0.210434
 C        -2.343107        -0.091805        -0.467415
 C        -2.782062         1.202595        -1.071567
 O        -3.019012         0.001836         0.882431
 C        -3.240325        -1.173191         1.639427
 C        -3.882330        -0.806263         2.960392
 O        -3.019170        -2.251412         1.177904
 H         1.947691        -1.726870         0.700112
 H         2.472105        -0.279180        -0.413765
 H         1.995257         0.016212         1.224671
 H        -2.826693        -1.039595        -0.977402
 H        -2.227697         2.004651        -0.679832
 H        -2.409883         1.090202        -2.151169
 H        -3.887792         1.201105        -1.069802
 H        -4.988300        -1.070690         2.954778
 H        -3.438750        -1.488601         3.720830
 H        -3.930200         0.264457         3.222181
