19
Iteration:   144charge 0 multiplicity 1
 C         1.751679         0.410432         0.350326
 C         0.316854         0.149408         0.003716
 C        -0.911046         0.031464         0.003070
 C        -2.389228        -0.156197        -0.371532
 C        -2.965146         0.905289        -1.203521
 O        -3.129978        -0.167283         1.037344
 C        -3.218125        -1.441140         1.553521
 C        -3.651487        -1.378782         2.998186
 O        -2.910087        -2.461733         0.953990
 H         2.383024        -0.532090         0.180253
 H         2.168998         1.253470        -0.241505
 H         1.756235         0.691772         1.356767
 H        -2.489758        -1.183812        -0.755759
 H        -2.710375         1.821504        -0.847929
 H        -2.759244         0.654624        -2.255162
 H        -3.961756         0.823680        -0.889368
 H        -4.541908        -1.981795         3.088336
 H        -2.756373        -1.742218         3.515077
 H        -3.742883        -0.333913         3.295337
