19
Iteration:  2644
 C         1.948850        -0.174717         0.186005
 C         0.548284        -0.075203        -0.083854
 C        -0.650059        -0.137628        -0.255040
 C        -2.047183        -0.401207        -0.211372
 C        -2.838025         0.802639        -1.051685
 O        -2.375337        -0.467305         1.191135
 C        -3.559804        -1.123972         1.596905
 C        -4.033738        -0.546957         2.949142
 O        -3.997775        -2.083335         0.986916
 H         2.692050        -0.000409        -0.786359
 H         2.241037         0.502870         0.964910
 H         2.311796        -1.139779         0.477027
 H        -2.245943        -1.322066        -0.802299
 H        -2.967857         1.791925        -0.380392
 H        -2.109689         0.962454        -1.832839
 H        -3.828397         0.641234        -1.501273
 H        -3.489513         0.434045         3.189182
 H        -5.111699        -0.348637         2.733080
 H        -4.040658        -1.179181         3.848040
