19
Iteration:  1543charge 0 multiplicity 1
 C         1.912317         0.372677         0.076026
 C         0.564776        -0.098014        -0.084668
 C        -0.646558        -0.162768        -0.267724
 C        -2.079927        -0.356951        -0.326256
 C        -2.730075         0.891255        -1.018620
 O        -2.642040        -0.342234         1.086358
 C        -3.508933        -1.313221         1.615862
 C        -4.000881        -0.900957         3.013473
 O        -3.829616        -2.356029         1.152942
 H         2.021885         1.303844         0.822394
 H         2.587507        -0.503167         0.374157
 H         2.330336         0.666644        -0.828852
 H        -2.401215        -1.237667        -0.817545
 H        -2.338436         1.810730        -0.436546
 H        -2.549755         1.026080        -2.061509
 H        -3.857871         1.052228        -0.840769
 H        -3.518220        -0.099389         3.587065
 H        -5.031998        -0.535416         2.992591
 H        -3.923651        -1.859475         3.599728
