19
Iteration:  4860
 C         1.856127        -0.712074        -0.537421
 C         0.517961        -0.520874        -0.129646
 C        -0.707276        -0.491495         0.033018
 C        -2.176418        -0.304222        -0.082233
 C        -2.390427         1.062162        -0.877805
 O        -2.627432        -0.032156         1.236555
 C        -3.528147        -0.948132         1.686048
 C        -3.960406        -0.508265         2.964043
 O        -3.994084        -1.908344         1.122803
 H         2.033829        -0.258890        -1.533287
 H         2.579548        -0.200458         0.082097
 H         2.259661        -1.749158        -0.831179
 H        -2.683155        -1.125665        -0.553061
 H        -3.449128         1.397531        -0.651894
 H        -1.659267         1.803857        -0.455716
 H        -2.353015         1.152115        -1.943892
 H        -4.045306        -1.480345         3.595217
 H        -3.238309         0.232268         3.396966
 H        -4.947392         0.012224         2.808837
