19
Iteration:  4767
 C         2.095567        -0.725776        -0.534239
 C         0.617014        -0.420914        -0.166359
 C        -0.618640        -0.356204         0.002922
 C        -2.055360        -0.380304         0.007900
 C        -2.742147         0.631033        -0.903024
 O        -2.501074        -0.205887         1.403280
 C        -3.633261        -0.837443         1.695465
 C        -3.817448        -0.623427         3.125206
 O        -4.326293        -1.366653         0.774086
 H         2.522893         0.209021        -1.046874
 H         2.714810        -0.826704         0.421327
 H         2.399385        -1.484733        -1.266168
 H        -2.517502        -1.409545        -0.227867
 H        -3.768160         0.360541        -1.192859
 H        -2.667359         1.649052        -0.470668
 H        -2.145472         0.643813        -1.796370
 H        -3.039632        -1.220497         3.593812
 H        -3.718407         0.449551         3.329906
 H        -4.807612        -0.970504         3.410694
