19
Iteration:  4283
 C         1.671862        -1.079558        -0.109728
 C         0.191104        -0.847061        -0.103913
 C        -0.978740        -0.453504        -0.163880
 C        -2.361463         0.017854        -0.266366
 C        -2.487840         1.429215        -0.936771
 O        -3.004824         0.177158         1.012439
 C        -3.187439        -0.936623         1.705096
 C        -4.028244        -0.634797         2.918763
 O        -2.919427        -2.039117         1.311327
 H         2.030852        -2.043157         0.338151
 H         1.897695        -1.017781        -1.168799
 H         2.065984        -0.227184         0.344019
 H        -2.807504        -0.712921        -0.890657
 H        -3.518281         1.658149        -1.349510
 H        -2.080823         2.377584        -0.365267
 H        -1.931929         1.274819        -1.954663
 H        -4.973544        -1.169821         2.762558
 H        -3.515030        -1.062190         3.789235
 H        -4.298279         0.431322         3.126538
