19
Iteration:  2054
 C         1.824181        -0.277585         0.164682
 C         0.432968        -0.025991        -0.121309
 C        -0.767828        -0.108275        -0.097744
 C        -2.200787        -0.130677        -0.248411
 C        -2.677709         0.921069        -1.239463
 O        -2.949113        -0.093964         1.020857
 C        -3.423825        -1.219880         1.624407
 C        -3.980130        -0.814183         2.992420
 O        -3.313936        -2.354175         1.203688
 H         2.529093         0.434945        -0.088862
 H         1.893269        -0.504991         1.208924
 H         2.050655        -1.357346        -0.314169
 H        -2.530454        -1.171366        -0.594386
 H        -2.822628         1.822564        -0.669959
 H        -1.822102         0.974591        -1.997522
 H        -3.645581         0.657909        -1.678820
 H        -4.351983        -1.694669         3.604209
 H        -3.025398        -0.489825         3.493593
 H        -4.646911         0.025459         2.869642
