19
Iteration:  3650charge 0 multiplicity 1
 C         2.126042        -0.038782        -0.028731
 C         0.628083         0.043625        -0.107789
 C        -0.535703        -0.298665        -0.047246
 C        -1.948991        -0.785612        -0.147935
 C        -2.686406        -0.005599        -1.169323
 O        -2.424413        -0.556771         1.188221
 C        -3.722105        -0.728983         1.612404
 C        -3.758436        -0.794664         3.106246
 O        -4.686445        -1.007815         0.943643
 H         2.586198        -0.464791        -0.941161
 H         2.610968         0.973997        -0.034737
 H         2.543379        -0.571157         0.817968
 H        -1.653392        -1.882534        -0.207411
 H        -3.550557        -0.592096        -1.638195
 H        -2.868786         1.102230        -0.940437
 H        -1.998832        -0.015015        -2.004205
 H        -4.609043        -0.250437         3.573438
 H        -3.817281        -1.844131         3.389437
 H        -2.829294        -0.425828         3.584595
