19
Iteration:  3898
 C         2.001505        -0.561939        -0.177594
 C         0.605230        -0.267498        -0.158539
 C        -0.593814        -0.192115        -0.164050
 C        -2.010091        -0.324060        -0.107415
 C        -2.804390         0.779761        -0.811528
 O        -2.483511        -0.177448         1.331196
 C        -3.549625        -0.987148         1.592377
 C        -4.106140        -0.642583         2.999980
 O        -4.003746        -1.811112         0.799734
 H         2.346070        -1.371981        -0.955634
 H         2.798348         0.203045        -0.272104
 H         2.285532        -1.037289         0.812808
 H        -2.487369        -1.183319        -0.573062
 H        -3.719621         0.601080        -0.280380
 H        -2.510548         1.790318        -0.602934
 H        -2.893939         0.549514        -1.822297
 H        -4.570462        -1.553179         3.389299
 H        -3.245416        -0.361308         3.601796
 H        -4.817176         0.200741         2.845624
