19
Iteration:  4386charge 0 multiplicity 1
 C         1.941850        -0.683242        -0.458350
 C         0.511419        -0.591890        -0.145280
 C        -0.718334        -0.602333        -0.065129
 C        -2.136004        -0.240436        -0.204466
 C        -2.324597         1.196137        -0.873031
 O        -2.800856         0.041725         1.144337
 C        -3.554269        -0.959470         1.721729
 C        -4.064678        -0.485269         3.039151
 O        -3.840789        -2.093187         1.184684
 H         2.607192        -0.884474         0.330608
 H         2.054975        -1.286842        -1.360410
 H         2.051802         0.405974        -0.656045
 H        -2.722751        -1.089864        -0.738860
 H        -3.310962         1.512735        -0.435379
 H        -1.671260         2.014364        -0.474075
 H        -2.321159         1.242642        -1.934466
 H        -4.156626        -1.290117         3.795860
 H        -3.239739         0.176214         3.407860
 H        -4.998463         0.072154         2.953621
