19
Iteration:  4615
 C         1.704495        -0.033332        -0.131972
 C         0.453724        -0.768739        -0.154162
 C        -0.740430        -0.850718        -0.307337
 C        -2.110802        -0.612845        -0.270391
 C        -2.381627         0.707816        -0.972230
 O        -2.279945        -0.581112         1.276545
 C        -3.542315        -0.761110         1.710616
 C        -3.625714        -0.713485         3.232110
 O        -4.517369        -0.912792         0.899848
 H         1.675476         0.987990         0.245498
 H         2.593453        -0.520989         0.326323
 H         2.069570        -0.150170        -1.147535
 H        -2.761732        -1.377888        -0.540703
 H        -3.433391         1.106378        -0.876187
 H        -1.721945         1.405152        -0.432594
 H        -1.996499         0.614007        -2.017235
 H        -2.587850        -0.864576         3.578161
 H        -4.000140         0.293365         3.483338
 H        -4.287722        -1.535760         3.595978
