19
Iteration:  2296charge 0 multiplicity 1
 C         1.556475        -0.775994         0.331859
 C         0.220148        -0.375651        -0.073794
 C        -0.936854        -0.066351        -0.035709
 C        -2.331752        -0.014100        -0.432039
 C        -2.706552         1.382866        -1.061449
 O        -3.372797        -0.206010         0.666616
 C        -3.212294        -1.179825         1.596800
 C        -3.887603        -0.853975         2.882326
 O        -2.448887        -2.122805         1.416666
 H         1.595542        -0.963033         1.362752
 H         2.014115        -1.689411        -0.119524
 H         2.331814         0.136877         0.177360
 H        -2.467574        -0.857766        -1.050582
 H        -2.644330         2.219986        -0.326937
 H        -2.023765         1.432765        -1.912011
 H        -3.805033         1.298661        -1.405877
 H        -4.237517         0.154848         2.819601
 H        -4.802125        -1.426591         3.091100
 H        -3.317882        -0.792110         3.849317
