19
Iteration:   444charge 0 multiplicity 1
 C         1.722479         0.128906         0.248508
 C         0.278895         0.138745        -0.102494
 C        -0.924088        -0.033853        -0.177010
 C        -2.364575        -0.148819        -0.367157
 C        -3.072639         1.031430        -1.020484
 O        -3.155962        -0.247316         0.905490
 C        -3.076862        -1.367731         1.631526
 C        -3.959181        -1.247262         2.796537
 O        -2.530517        -2.387844         1.367141
 H         1.886281         0.608074         1.246449
 H         2.106426        -0.934339         0.381766
 H         2.550615         0.604907        -0.441248
 H        -2.550746        -1.044084        -1.072758
 H        -2.756154         2.016758        -0.532879
 H        -2.932017         1.017899        -2.094478
 H        -4.157372         1.175534        -0.717169
 H        -3.453130        -0.721944         3.589696
 H        -4.811488        -0.644278         2.486742
 H        -4.223048        -2.282670         2.999642
