19
Iteration:  2179
 C         1.742620        -0.496612         0.375181
 C         0.246144        -0.468188        -0.167228
 C        -0.955834        -0.276340        -0.306275
 C        -2.373876        -0.059483        -0.466743
 C        -2.616520         1.219659        -1.193098
 O        -3.215677         0.066244         0.959624
 C        -3.264060        -1.083238         1.626319
 C        -4.061865        -1.028351         2.973563
 O        -2.626319        -2.105963         1.381622
 H         1.877701         0.293318         1.208399
 H         1.786000        -1.513273         0.848001
 H         2.486652        -0.390642        -0.283610
 H        -2.850423        -0.990022        -0.917961
 H        -1.971653         2.059378        -0.762239
 H        -2.352146         0.991595        -2.173632
 H        -3.668907         1.535200        -1.065085
 H        -3.447959        -0.566223         3.724681
 H        -5.098745        -0.712109         2.877190
 H        -3.974057        -2.093625         3.299256
