19
Iteration:  4952charge 0 multiplicity 1
 C         1.808643        -0.937325        -0.176863
 C         0.360727        -0.610416        -0.378385
 C        -0.844428        -0.468860        -0.282097
 C        -2.334688        -0.084425        -0.259126
 C        -2.482481         1.322703        -0.899465
 O        -2.600557         0.081051         1.224391
 C        -3.427687        -1.032362         1.735149
 C        -4.120131        -0.525717         3.063853
 O        -3.443705        -2.054889         1.180450
 H         2.212037        -1.346922        -1.099147
 H         2.340352        -0.095496         0.321678
 H         1.751764        -1.879037         0.340354
 H        -2.998828        -0.929088        -0.551821
 H        -3.437179         1.295653        -1.476412
 H        -2.423856         2.025632        -0.039302
 H        -1.691785         1.615787        -1.770584
 H        -5.109943        -0.846210         3.321702
 H        -3.585886        -1.080422         3.867263
 H        -3.959322         0.522066         3.292406
