19
Iteration:  2419charge 0 multiplicity 1
 C         1.709187        -0.564782         0.378438
 C         0.350700        -0.313663        -0.016859
 C        -0.857966        -0.229783        -0.193551
 C        -2.331195        -0.090700        -0.452629
 C        -2.798191         1.196592        -1.085903
 O        -3.010295         0.004194         0.903620
 C        -3.229487        -1.161199         1.618697
 C        -3.908121        -0.826907         2.962900
 O        -2.991525        -2.243223         1.174010
 H         1.898934        -1.580749         0.683174
 H         2.488061        -0.339648        -0.396786
 H         1.940828         0.034022         1.222250
 H        -2.804041        -0.965435        -0.850507
 H        -2.139675         2.046623        -0.749042
 H        -2.486771         1.118139        -2.115424
 H        -3.842314         1.274514        -1.104212
 H        -5.020412        -0.938749         3.024992
 H        -3.414445        -1.501881         3.662096
 H        -3.898283         0.222083         3.161462
