19
Iteration:   910
 C         1.985746         0.799153        -0.202579
 C         0.553914         0.442716        -0.174288
 C        -0.537250        -0.005251         0.178348
 C        -1.872970        -0.494475         0.014405
 C        -2.829304         0.266643        -0.915993
 O        -2.390345        -0.657186         1.437431
 C        -3.603158        -1.365067         1.499059
 C        -4.001401        -1.141100         2.924937
 O        -4.267146        -1.936125         0.662503
 H         2.123316         1.802666         0.177168
 H         2.593297         0.113396         0.332305
 H         2.349975         0.776479        -1.382291
 H        -1.723501        -1.554410        -0.474055
 H        -2.886022         1.358033        -0.703148
 H        -2.435192        -0.083678        -1.991460
 H        -3.855374        -0.110522        -0.778630
 H        -4.036535        -0.020251         2.943121
 H        -4.870793        -1.809112         3.061041
 H        -3.193553        -1.355385         3.655836
