19
Iteration:  3705
 C         2.006346         0.314817        -0.352940
 C         0.722248        -0.363447        -0.094685
 C        -0.452639        -0.595813         0.005921
 C        -1.900959        -0.854113         0.050125
 C        -2.554042         0.060018        -1.065192
 O        -2.383417        -0.528119         1.423325
 C        -3.727904        -0.679492         1.606645
 C        -4.068196        -0.827782         3.054979
 O        -4.522797        -0.868768         0.755222
 H         2.384526        -0.052323        -1.296596
 H         1.935080         1.429305        -0.398891
 H         2.868993         0.036224         0.221919
 H        -2.060229        -2.013354        -0.026954
 H        -3.732324        -0.203089        -1.102124
 H        -2.560826         1.134491        -0.759517
 H        -2.209000        -0.104932        -2.083303
 H        -5.148004        -0.723098         3.258866
 H        -3.867927        -1.845546         3.355100
 H        -3.520309        -0.272104         3.841961
