19
Iteration:  3193charge 0 multiplicity 1
 C         1.458891        -0.851662         0.384310
 C         0.072490        -0.628258         0.130201
 C        -1.053720        -0.480822        -0.190229
 C        -2.356033        -0.070371        -0.551559
 C        -2.466689         1.344723        -1.089399
 O        -3.308346        -0.079566         0.585254
 C        -3.151826        -0.980375         1.579819
 C        -4.073508        -0.729143         2.846348
 O        -2.288449        -1.897041         1.618795
 H         1.703255        -1.574521         1.139702
 H         1.931825        -1.168073        -0.555499
 H         1.944451         0.186656         0.619145
 H        -2.775824        -0.647229        -1.388333
 H        -3.419176         1.787429        -1.079162
 H        -2.020543         2.042136        -0.456987
 H        -2.014948         1.209974        -2.044616
 H        -4.155175         0.274493         3.331605
 H        -5.109067        -0.653259         2.511861
 H        -3.770555        -1.422622         3.664262
