19
Iteration:  4619charge 0 multiplicity 1
 C         1.709201        -0.061971        -0.116708
 C         0.473827        -0.749344        -0.121232
 C        -0.741163        -0.869267        -0.364878
 C        -2.114144        -0.570827        -0.232044
 C        -2.387467         0.717629        -0.954611
 O        -2.298162        -0.611420         1.271089
 C        -3.511691        -0.770212         1.695729
 C        -3.643481        -0.728356         3.226375
 O        -4.497838        -0.901748         0.915527
 H         1.682065         1.019686         0.067494
 H         2.564313        -0.496453         0.371683
 H         2.031964        -0.052815        -1.237618
 H        -2.774060        -1.424120        -0.665279
 H        -3.436047         0.977323        -0.846412
 H        -1.822122         1.535517        -0.489084
 H        -2.065570         0.501623        -2.132246
 H        -2.625021        -0.676649         3.662342
 H        -3.987366         0.322066         3.414160
 H        -4.370493        -1.443655         3.597939
