19
Iteration:  3840
 C         2.191426        -0.158379        -0.410109
 C         0.707283        -0.314968        -0.330020
 C        -0.465433        -0.329792         0.019641
 C        -1.946724        -0.594384         0.043285
 C        -2.685399         0.626021        -0.690771
 O        -2.403470        -0.534549         1.395949
 C        -3.720890        -0.966241         1.610719
 C        -4.245817        -0.471276         2.962889
 O        -4.325519        -1.577512         0.769159
 H         2.373320        -0.714361        -1.310864
 H         2.409338         0.895102        -0.596136
 H         2.703834        -0.621407         0.480662
 H        -2.335104        -1.447290        -0.546357
 H        -3.693625         0.400108        -0.930553
 H        -2.561776         1.576310        -0.123177
 H        -2.188220         0.865281        -1.674499
 H        -5.282327        -0.769353         3.064676
 H        -3.648869        -0.821036         3.814515
 H        -4.230822         0.594763         3.036207
