19
Iteration:  2983
 C         2.022452        -0.047756         0.183146
 C         0.491256        -0.213873        -0.095769
 C        -0.694192        -0.521292        -0.048150
 C        -2.157483        -0.493047        -0.215094
 C        -2.454654         0.723204        -1.188976
 O        -2.653103        -0.225160         1.079165
 C        -3.633559        -0.997886         1.610448
 C        -3.726519        -0.631042         3.065854
 O        -4.244671        -1.880508         0.959086
 H         2.250901         0.243050         1.114510
 H         2.455074        -1.053515         0.144946
 H         2.574558         0.378633        -0.696507
 H        -2.348458        -1.440702        -0.736033
 H        -3.438866         0.719296        -1.548696
 H        -2.473464         1.692569        -0.573617
 H        -1.726126         0.811020        -2.055224
 H        -2.818237        -0.956877         3.623949
 H        -3.882582         0.473268         3.260809
 H        -4.521042        -1.335758         3.432992
