19
Iteration:  4823
 C         2.063884        -0.668340        -0.558017
 C         0.552649        -0.590559        -0.297846
 C        -0.648138        -0.468037        -0.146866
 C        -2.075436        -0.258779        -0.020032
 C        -2.424276         0.929582        -1.116760
 O        -2.583173         0.014925         1.461197
 C        -3.628603        -0.868280         1.807248
 C        -4.166404        -0.716789         3.221618
 O        -4.067419        -1.683289         0.976666
 H         2.230305         0.121937        -1.334173
 H         2.664919        -0.436380         0.386517
 H         2.346974        -1.682483        -0.817759
 H        -2.611456        -1.247701        -0.249129
 H        -3.395745         1.237938        -0.919005
 H        -1.717627         1.726786        -1.062826
 H        -2.338145         0.452229        -2.130697
 H        -3.941258        -1.612921         3.772308
 H        -3.772001         0.194318         3.703394
 H        -5.248894        -0.688633         3.305246
