19
Iteration:    67charge 0 multiplicity 1
 C         1.806863         0.555764         0.304126
 C         0.355475         0.485766        -0.045768
 C        -0.797203         0.051235        -0.165366
 C        -2.202408        -0.292680        -0.207934
 C        -3.097861         0.683674        -0.891053
 O        -2.657377        -0.282322         1.172798
 C        -3.295484        -1.432982         1.454321
 C        -3.735613        -1.290091         2.879082
 O        -3.417754        -2.483361         0.824357
 H         2.063665        -0.271959         0.972775
 H         2.294600         0.398810        -0.663353
 H         2.089117         1.455899         0.662365
 H        -2.275845        -1.287291        -0.676108
 H        -3.223956         1.538359        -0.319309
 H        -2.614509         0.739367        -1.917219
 H        -3.945097         0.048242        -1.034731
 H        -4.639841        -1.852483         2.853202
 H        -2.996904        -1.726564         3.553789
 H        -4.043471        -0.264173         2.997976
