19
Iteration:  1646
 C         2.176520         0.446363        -0.141387
 C         0.754132         0.093679        -0.042293
 C        -0.463882        -0.084996        -0.135509
 C        -1.922768        -0.502324        -0.033252
 C        -3.064772         0.257999        -0.970229
 O        -2.445953        -0.414135         1.317739
 C        -3.621164        -1.067903         1.618993
 C        -4.095383        -1.092547         3.030949
 O        -4.205074        -1.767462         0.739192
 H         2.805808         0.359106         0.651746
 H         2.544493        -0.262533        -0.926409
 H         2.151503         1.535588        -0.624870
 H        -1.955584        -1.557814        -0.469855
 H        -3.046293         1.263051        -0.606169
 H        -2.571974         0.411959        -1.973581
 H        -3.986107        -0.266278        -0.976418
 H        -4.859795        -0.348183         3.409646
 H        -4.585603        -2.111760         3.162504
 H        -3.333066        -1.050981         3.835570
