19
Iteration:  3086
 C         1.746434        -0.756659         0.379108
 C         0.359852        -0.356557         0.095090
 C        -0.821542        -0.112552        -0.133734
 C        -2.324664        -0.151904        -0.327258
 C        -2.813164         0.854957        -1.332493
 O        -2.822947         0.172867         1.035596
 C        -3.316962        -1.053384         1.615694
 C        -3.929771        -0.632853         2.950346
 O        -3.140557        -2.140989         1.083058
 H         1.981453        -1.043707         1.441177
 H         1.874528        -1.611350        -0.249805
 H         2.481508        -0.023226         0.066962
 H        -2.489432        -1.159825        -0.733552
 H        -4.001088         0.772757        -1.397528
 H        -2.420188         1.837026        -1.122599
 H        -2.563720         0.668327        -2.358277
 H        -3.167031        -0.083892         3.519793
 H        -4.893250        -0.129911         2.814166
 H        -4.275094        -1.553696         3.481554
