19
Iteration:   601charge 0 multiplicity 1
 C         1.831539         0.493337         0.115396
 C         0.433620         0.279721         0.125499
 C        -0.755728         0.156869        -0.189632
 C        -2.170693        -0.268433        -0.265875
 C        -2.945568         0.727183        -1.199709
 O        -2.757892        -0.274535         1.143627
 C        -3.332212        -1.511480         1.597420
 C        -3.783978        -1.165612         2.981068
 O        -3.541543        -2.539420         1.039237
 H         2.295870        -0.443150         0.221364
 H         2.192955         0.867983        -0.874313
 H         2.211001         1.210647         1.017154
 H        -2.265020        -1.258097        -0.691993
 H        -2.746341         1.765478        -0.814535
 H        -2.603514         0.690681        -2.252704
 H        -4.010485         0.545182        -1.252519
 H        -4.604658        -0.483014         2.987609
 H        -4.137689        -1.975096         3.547021
 H        -2.962018        -0.791107         3.539669
