19
Iteration:  2972
 C         1.990444        -0.019135         0.105650
 C         0.541565        -0.230221        -0.011664
 C        -0.637917        -0.544392        -0.105238
 C        -2.087416        -0.519778        -0.305997
 C        -2.485969         0.685995        -1.093200
 O        -2.586348        -0.269087         1.080605
 C        -3.684415        -0.996841         1.609210
 C        -3.792617        -0.647914         3.084276
 O        -4.284845        -1.798797         0.946064
 H         2.107981         0.580051         0.894047
 H         2.496064        -0.961459         0.252586
 H         2.425744         0.699351        -0.593446
 H        -2.629373        -1.437034        -0.584397
 H        -3.458174         0.582911        -1.473948
 H        -2.217326         1.574313        -0.446899
 H        -1.744157         0.675579        -1.938039
 H        -2.823455        -1.052423         3.435332
 H        -3.787643         0.450444         3.328935
 H        -4.676619        -1.100970         3.615479
