19
Iteration:   320
 C         1.476082        -0.122812         0.376014
 C         0.109168        -0.127753         0.065344
 C        -1.077219         0.077666        -0.056017
 C        -2.529879         0.055091        -0.430555
 C        -3.052597         1.144906        -1.246813
 O        -3.268777        -0.205469         0.796222
 C        -2.930486        -1.277140         1.618598
 C        -3.854980        -1.500394         2.878977
 O        -2.079236        -2.133283         1.371467
 H         2.196680         0.686008        -0.125699
 H         1.802953        -0.167238         1.399914
 H         1.786358        -0.996809        -0.070697
 H        -2.597651        -0.942329        -1.001323
 H        -2.905597         2.076433        -0.776245
 H        -2.469248         1.159558        -2.187403
 H        -3.993530         0.932249        -1.622719
 H        -3.485270        -2.432771         3.378793
 H        -3.610364        -0.716630         3.637585
 H        -4.909216        -1.506516         2.542324
