19
Iteration:  1346charge 0 multiplicity 1
 C         1.492824        -0.350411         0.416283
 C         0.163536        -0.317773        -0.155118
 C        -0.987224         0.045384        -0.267115
 C        -2.472744        -0.025902        -0.345081
 C        -2.923608         1.169301        -1.182517
 O        -3.081722        -0.018905         0.928249
 C        -2.988434        -1.243680         1.662151
 C        -3.914592        -1.167104         2.783601
 O        -2.405124        -2.249785         1.385424
 H         2.359132         0.054590        -0.171661
 H         1.528070         0.196219         1.467008
 H         1.694474        -1.373056         0.621013
 H        -2.736685        -1.001965        -0.730119
 H        -3.026689         2.134353        -0.653636
 H        -2.236856         1.304688        -1.906794
 H        -3.848856         0.877591        -1.745165
 H        -4.687573        -1.968821         2.609789
 H        -3.392120        -1.359325         3.779237
 H        -4.370773        -0.219190         3.083128
