19
Iteration:  2248charge 0 multiplicity 1
 C         1.505247        -0.703743         0.179508
 C         0.171547        -0.318111         0.330195
 C        -0.980866        -0.179197        -0.060298
 C        -2.374707        -0.011333        -0.513629
 C        -2.643602         1.318699        -1.009963
 O        -3.356740        -0.264584         0.657527
 C        -3.071921        -1.171695         1.590262
 C        -3.911747        -0.709188         2.855332
 O        -2.444939        -2.168936         1.373291
 H         2.164828        -0.702426         1.098842
 H         1.463001        -1.729307        -0.147176
 H         2.013976        -0.092442        -0.574071
 H        -2.623536        -0.698831        -1.360810
 H        -2.882096         1.947818        -0.131398
 H        -1.734211         1.622616        -1.671694
 H        -3.620821         1.302778        -1.514465
 H        -3.920621         0.406403         3.081573
 H        -4.953869        -1.103815         2.798306
 H        -3.490186        -1.069016         3.791630
