19
Iteration:  3886charge 0 multiplicity 1
 C         2.098055        -0.554300        -0.209011
 C         0.643308        -0.178228        -0.209200
 C        -0.559691        -0.221030        -0.216774
 C        -2.062250        -0.318139        -0.054781
 C        -2.831176         0.742933        -0.804349
 O        -2.416391        -0.330975         1.356677
 C        -3.581941        -0.976476         1.676627
 C        -4.188127        -0.626558         2.989558
 O        -4.034892        -1.742242         0.781414
 H         2.302378        -1.314396        -1.033985
 H         2.614854         0.404019        -0.304848
 H         2.246800        -1.016986         0.812459
 H        -2.176975        -1.393847        -0.327239
 H        -3.857973         0.887206        -0.654836
 H        -2.250759         1.667010        -0.614524
 H        -2.765326         0.644465        -1.860301
 H        -4.916834        -1.357248         3.341045
 H        -3.497077        -0.385018         3.790085
 H        -4.792803         0.286144         2.895426
