19
Iteration:  1728
 C         1.959782         0.647907        -0.428499
 C         0.654546         0.099230         0.110254
 C        -0.480039        -0.341086         0.101671
 C        -1.897271        -0.642425         0.016416
 C        -2.460212         0.244375        -1.126431
 O        -2.517570        -0.405133         1.303947
 C        -3.696077        -1.088433         1.587145
 C        -3.965038        -1.181450         3.116027
 O        -4.514506        -1.565191         0.782922
 H         2.828287        -0.058509         0.018252
 H         1.979500         0.736088        -1.526184
 H         2.248486         1.576180        -0.008789
 H        -2.077275        -1.622596        -0.428221
 H        -2.343100         1.328228        -0.756625
 H        -1.903579        -0.191045        -2.031131
 H        -3.535813         0.092326        -1.197424
 H        -4.785480        -1.892597         3.203919
 H        -3.118735        -1.450632         3.716668
 H        -4.286867        -0.179248         3.428907
