19
Iteration:  2310
 C         1.597071        -0.723095         0.376988
 C         0.209169        -0.437504        -0.036977
 C        -0.953892        -0.113834        -0.125817
 C        -2.406276        -0.037124        -0.405949
 C        -2.750312         1.306445        -1.087945
 O        -3.279793        -0.106246         0.751902
 C        -3.061237        -1.164377         1.648913
 C        -4.018264        -0.796278         2.902549
 O        -2.440870        -2.146917         1.295976
 H         1.519289        -1.108496         1.501779
 H         2.006684        -1.555484        -0.290763
 H         2.289069         0.101763         0.289875
 H        -2.706986        -0.888244        -1.104052
 H        -2.463481         2.151478        -0.323607
 H        -2.244756         1.557594        -1.968889
 H        -3.775148         1.504715        -1.262593
 H        -4.604840         0.108000         2.679278
 H        -4.624092        -1.689154         3.034977
 H        -3.339474        -0.882911         3.731319
