19
Iteration:   239
 C         1.625557         0.134191         0.477107
 C         0.219998         0.014150        -0.088220
 C        -1.014175        -0.067774        -0.216698
 C        -2.525690        -0.161088        -0.441509
 C        -3.009638         1.183157        -0.998610
 O        -3.277827        -0.308151         0.743924
 C        -3.048540        -1.404911         1.538757
 C        -3.755695        -1.223307         2.931707
 O        -2.325521        -2.367523         1.295791
 H         2.306659         0.213683        -0.269174
 H         1.579219         1.099593         1.006668
 H         1.791838        -0.603004         1.257179
 H        -2.854842        -0.957292        -1.143475
 H        -2.925388         1.949352        -0.156520
 H        -2.430922         1.403135        -1.855752
 H        -4.153474         1.169845        -1.141095
 H        -4.354169        -2.112778         3.028179
 H        -2.907898        -1.074034         3.618428
 H        -4.374104        -0.327850         2.897372
