19
Iteration:  2865charge 0 multiplicity 1
 C         2.141199         0.176369        -0.234305
 C         0.646563         0.039024        -0.163490
 C        -0.454632        -0.473514        -0.034052
 C        -1.839972        -0.752373        -0.076083
 C        -2.627592         0.220588        -0.892867
 O        -2.327574        -0.702538         1.399180
 C        -3.743392        -0.824328         1.616385
 C        -4.242058        -0.794327         3.049426
 O        -4.470727        -1.158245         0.701922
 H         2.432499         1.221660         0.198776
 H         2.805191        -0.412066         0.360563
 H         2.451527         0.063646        -1.227062
 H        -2.056992        -1.785885        -0.399655
 H        -3.657613         0.098730        -0.837262
 H        -2.420627         1.311114        -0.702874
 H        -2.313651         0.084588        -1.976394
 H        -4.570469        -1.758088         3.431041
 H        -3.432046        -0.341398         3.641102
 H        -5.136047        -0.135067         3.034641
