19
Iteration:   587charge 0 multiplicity 1
 C         1.838242         0.465654         0.109170
 C         0.351432         0.330211         0.086728
 C        -0.835200         0.013145        -0.044348
 C        -2.213815        -0.209090        -0.276481
 C        -2.865210         0.814603        -1.186553
 O        -2.785887        -0.404526         1.044932
 C        -3.376522        -1.439685         1.602330
 C        -3.775609        -1.116677         3.067774
 O        -3.409861        -2.528486         0.999757
 H         2.376750        -0.418706         0.416659
 H         2.124773         0.839205        -0.964789
 H         2.080507         1.342350         0.784466
 H        -2.346482        -1.247199        -0.754783
 H        -2.721729         1.847190        -0.981485
 H        -2.453883         0.409606        -2.183643
 H        -3.963372         0.659584        -1.156962
 H        -4.394420        -0.256045         3.054629
 H        -4.255071        -1.987217         3.465136
 H        -2.891794        -0.916011         3.623723
