19
Iteration:  2362
 C         1.514170        -0.605634         0.440225
 C         0.134580        -0.469728         0.079101
 C        -0.997057        -0.333074        -0.395334
 C        -2.431236        -0.050094        -0.434743
 C        -2.737153         1.191604        -1.222137
 O        -2.822280         0.154534         1.070021
 C        -3.083633        -1.049003         1.640256
 C        -4.055395        -1.066429         2.892502
 O        -2.633318        -2.073965         1.213826
 H         1.679921        -1.269210         1.200484
 H         2.167498        -0.856661        -0.422640
 H         1.874222         0.432055         0.796311
 H        -3.102622        -0.777931        -0.750334
 H        -2.244746         2.180977        -1.002268
 H        -2.620159         0.993590        -2.251693
 H        -3.774233         1.513304        -1.086082
 H        -4.862288        -0.612346         2.337414
 H        -4.301765        -2.087687         3.146199
 H        -3.726081        -0.550129         3.814188
