19
Iteration:  2005charge 0 multiplicity 1
 C         1.905245        -0.074452         0.024696
 C         0.465325        -0.098243         0.179781
 C        -0.758449        -0.293210         0.035875
 C        -2.143897        -0.280157        -0.281725
 C        -2.693011         0.796000        -1.288517
 O        -2.882184         0.004222         1.044189
 C        -3.452587        -1.133059         1.574627
 C        -3.879862        -0.888303         3.026626
 O        -3.562803        -2.239667         1.094913
 H         2.019524         0.784997        -0.781229
 H         2.539385         0.369525         0.868202
 H         2.365946        -0.979769        -0.203737
 H        -2.548119        -1.244399        -0.537505
 H        -2.400161         1.861099        -1.077283
 H        -2.439384         0.407702        -2.249101
 H        -3.793664         0.631319        -1.149677
 H        -4.885924        -1.247812         3.090759
 H        -3.422056        -1.675417         3.619370
 H        -3.730538         0.178166         3.264259
