19
Iteration:  4295charge 0 multiplicity 1
 C         1.689797        -0.962541        -0.196052
 C         0.244029        -0.881796        -0.114471
 C        -0.973329        -0.549068        -0.168822
 C        -2.336192        -0.037138        -0.323146
 C        -2.403371         1.338424        -0.907282
 O        -3.039474         0.293564         1.025802
 C        -3.257466        -0.926521         1.701211
 C        -4.023844        -0.653133         2.929944
 O        -3.012128        -2.041652         1.320864
 H         2.103906        -1.789676         0.402639
 H         2.210861        -1.014630        -1.156421
 H         2.096651        -0.125284         0.294498
 H        -3.021961        -0.753530        -0.749189
 H        -3.474022         1.533884        -1.075834
 H        -2.119536         1.980663         0.054894
 H        -1.678720         1.644355        -1.737449
 H        -4.915360        -1.289181         2.883142
 H        -3.485523        -0.936918         3.856906
 H        -4.260173         0.445170         2.946534
