19
Iteration:   373charge 0 multiplicity 1
 C         1.587489        -0.205743         0.273057
 C         0.191717         0.147502         0.109410
 C        -1.015110         0.032437        -0.072406
 C        -2.452044        -0.105571        -0.383156
 C        -3.160190         1.017395        -1.139040
 O        -3.172561        -0.156185         0.902321
 C        -3.001802        -1.277059         1.607075
 C        -3.926124        -1.387348         2.760761
 O        -2.179438        -2.124634         1.276701
 H         2.279522         0.673592         0.582612
 H         1.697609        -0.864889         1.121770
 H         2.081204        -0.675804        -0.531294
 H        -2.571949        -1.190154        -0.766685
 H        -3.416408         1.764319        -0.463457
 H        -2.596272         1.408887        -2.021139
 H        -4.117540         0.673939        -1.501789
 H        -3.383273        -1.757642         3.686146
 H        -4.385952        -0.406449         2.995756
 H        -4.707674        -2.120397         2.486706
