19
Iteration:  4958
 C         1.760072        -0.986100        -0.160055
 C         0.336537        -0.584468        -0.334566
 C        -0.889541        -0.519714        -0.286704
 C        -2.325459        -0.063302        -0.175994
 C        -2.523234         1.299872        -0.910028
 O        -2.629683         0.132799         1.213839
 C        -3.387881        -0.962960         1.715819
 C        -4.075347        -0.549495         3.022935
 O        -3.392076        -2.082844         1.134144
 H         2.278141        -1.323237        -1.097751
 H         2.372499        -0.173588         0.226416
 H         1.979716        -1.914630         0.508123
 H        -2.800559        -0.970316        -0.567217
 H        -3.562605         1.348787        -1.276598
 H        -2.406599         2.015529        -0.088213
 H        -1.908355         1.615172        -1.657277
 H        -5.172346        -0.734581         3.159792
 H        -3.547664        -1.097784         3.830851
 H        -3.719827         0.493597         3.256184
