19
Iteration:  4447charge 0 multiplicity 1
 C         1.996644        -0.787162        -0.318128
 C         0.578818        -0.427434        -0.418861
 C        -0.582960        -0.236946        -0.194762
 C        -2.066376        -0.291927         0.006921
 C        -2.765301         0.793063        -0.942299
 O        -2.386197        -0.196417         1.450056
 C        -3.508747        -0.897983         1.740727
 C        -4.118317        -0.601171         3.071020
 O        -4.107122        -1.569024         0.909682
 H         2.441977        -0.850456         0.744196
 H         2.293845        -1.738261        -0.850130
 H         2.660330        -0.162964        -0.945369
 H        -2.387150        -1.239211        -0.368115
 H        -3.675784         0.358957        -1.315932
 H        -3.036832         1.795247        -0.471351
 H        -2.124332         0.860341        -1.838653
 H        -3.788224        -1.338994         3.827564
 H        -3.793140         0.387201         3.427927
 H        -5.202806        -0.749475         3.025208
