19
Iteration:  4826
 C         2.045940        -0.681226        -0.559721
 C         0.564557        -0.573149        -0.274199
 C        -0.650172        -0.484518        -0.146922
 C        -2.097786        -0.240658        -0.036222
 C        -2.399706         0.928972        -1.123883
 O        -2.576481         0.005708         1.457069
 C        -3.630836        -0.861104         1.809638
 C        -4.173558        -0.694412         3.236519
 O        -4.057083        -1.716259         0.959175
 H         2.149284         0.116628        -1.302381
 H         2.602918        -0.358009         0.335390
 H         2.365283        -1.728041        -0.860813
 H        -2.535504        -1.168965        -0.352682
 H        -3.389487         1.303786        -0.871913
 H        -1.769825         1.790893        -1.003826
 H        -2.403934         0.446940        -2.110025
 H        -3.918525        -1.584927         3.913505
 H        -3.686868         0.149131         3.794218
 H        -5.284966        -0.651038         3.266514
