19
Iteration:   531charge 0 multiplicity 1
 C         1.748851         0.574846         0.096168
 C         0.330286         0.002036         0.022847
 C        -0.867418        -0.243704        -0.055583
 C        -2.296953        -0.268057        -0.345535
 C        -2.721607         0.984204        -1.201860
 O        -3.085631        -0.195192         1.009109
 C        -3.345149        -1.381055         1.657690
 C        -3.834231        -1.270383         3.106202
 O        -3.016521        -2.425947         1.055083
 H         2.333548         0.220948         1.020507
 H         2.336290         0.306595        -0.834609
 H         1.581564         1.630011         0.158203
 H        -2.578610        -1.319900        -0.714338
 H        -2.516834         1.850382        -0.548791
 H        -2.141358         1.096954        -2.147862
 H        -3.807820         0.876870        -1.507021
 H        -3.836061        -0.259843         3.526381
 H        -4.853172        -1.665433         3.349028
 H        -3.142650        -1.929648         3.629560
