19
Iteration:  3448
 C         1.907636        -0.459943         0.014134
 C         0.449890        -0.347784        -0.015746
 C        -0.769881        -0.437225         0.059404
 C        -2.153624        -0.326781        -0.283990
 C        -2.475544         0.838099        -1.203268
 O        -2.971218         0.017414         0.916817
 C        -3.454654        -1.008337         1.685758
 C        -4.000286        -0.436290         2.955051
 O        -3.542147        -2.140042         1.257794
 H         2.142865        -1.399874        -0.551051
 H         2.276899         0.366273        -0.577392
 H         2.397648        -0.656565         0.992148
 H        -2.462641        -1.325120        -0.670440
 H        -3.667946         0.883317        -1.282257
 H        -2.262774         1.694040        -0.611798
 H        -1.966674         0.797575        -2.201338
 H        -4.828813         0.291803         2.723014
 H        -4.336787        -1.104034         3.738160
 H        -3.225556         0.211904         3.436558
