19
Iteration:  2098charge 0 multiplicity 1
 C         1.812599        -0.377798         0.248467
 C         0.383870        -0.364243         0.111700
 C        -0.767703        -0.103674        -0.235935
 C        -2.223748        -0.159732        -0.385193
 C        -2.917182         1.070436        -1.117677
 O        -2.959158        -0.039141         0.928147
 C        -3.274092        -1.173588         1.632470
 C        -4.065696        -0.797253         2.893353
 O        -3.033028        -2.271145         1.236364
 H         2.072469         0.615774         0.208697
 H         2.300053        -0.765804         1.113797
 H         2.320447        -0.938474        -0.660471
 H        -2.385956        -1.177652        -0.849663
 H        -2.762396         1.887677        -0.471368
 H        -2.505162         1.231649        -2.180226
 H        -3.981661         0.791222        -1.129311
 H        -3.706441        -1.459748         3.691948
 H        -3.808034         0.124879         3.438004
 H        -5.130720        -0.817485         2.759026
