19
Iteration:  3990
 C         1.662787        -0.775817         0.162812
 C         0.268704        -0.408361        -0.087031
 C        -0.930935        -0.433185        -0.103298
 C        -2.274091        -0.112265        -0.338432
 C        -2.442462         1.255447        -1.150392
 O        -2.945793         0.157995         1.014124
 C        -3.374362        -1.058815         1.594772
 C        -3.496833        -0.871338         3.173434
 O        -3.574782        -2.054486         0.999794
 H         2.015085        -1.697509        -0.334515
 H         2.325029         0.122074         0.061697
 H         1.562234        -0.927969         1.264810
 H        -2.832616        -0.952829        -0.770174
 H        -3.466148         1.370989        -1.464270
 H        -2.307776         2.102131        -0.482354
 H        -1.604507         1.386148        -1.878754
 H        -2.610350        -1.309513         3.710969
 H        -3.435433         0.199370         3.463776
 H        -4.383706        -1.429213         3.492287
