19
Iteration:  4925charge 0 multiplicity 1
 C         1.837091        -0.844975        -0.275719
 C         0.408281        -0.657056        -0.402188
 C        -0.743172        -0.388845        -0.360855
 C        -2.144513        -0.064005        -0.194797
 C        -2.356805         1.312522        -0.881788
 O        -2.675223         0.011615         1.141893
 C        -3.417898        -0.993139         1.794479
 C        -4.079294        -0.570673         3.013567
 O        -3.788586        -2.109455         1.372111
 H         2.202580        -0.822907        -1.336530
 H         2.167122         0.039925         0.276999
 H         2.078135        -1.866101         0.245912
 H        -2.800371        -0.885064        -0.593565
 H        -3.298558         1.201358        -1.448217
 H        -2.546151         2.004230        -0.041663
 H        -1.608725         1.600217        -1.520029
 H        -4.932129        -1.278056         3.270365
 H        -3.492089        -0.765225         3.936044
 H        -4.492024         0.470068         2.999193
