19
Iteration:  3592charge 0 multiplicity 1
 C         2.056362        -0.064309         0.265512
 C         0.597898        -0.298844        -0.018219
 C        -0.603562        -0.297577        -0.266842
 C        -2.058232        -0.575952        -0.320775
 C        -2.957632         0.212293        -1.281587
 O        -2.337949        -0.456899         1.155256
 C        -3.534695        -0.798428         1.611615
 C        -3.656505        -0.646760         3.118474
 O        -4.452021        -1.301695         1.014101
 H         2.753101        -0.563308        -0.420992
 H         2.178319         0.963386         0.348851
 H         2.166979        -0.471628         1.247713
 H        -2.014217        -1.718096        -0.485031
 H        -3.999216         0.048950        -1.108587
 H        -2.785025         1.384777        -1.197479
 H        -2.593128        -0.188050        -2.297417
 H        -4.563941        -0.035354         3.198702
 H        -3.960176        -1.716328         3.367285
 H        -2.778453        -0.252144         3.655288
