19
Iteration:  4508charge 0 multiplicity 1
 C         2.109921        -0.649578        -0.343514
 C         0.643751        -0.400889        -0.086878
 C        -0.530424        -0.206183        -0.075566
 C        -1.986696        -0.413754        -0.063878
 C        -2.865861         0.543769        -0.976913
 O        -2.380622        -0.380685         1.317553
 C        -3.633047        -0.882259         1.624072
 C        -3.730696        -0.713622         3.121560
 O        -4.527049        -1.127659         0.870062
 H         2.734884        -0.348034         0.439047
 H         2.073900        -1.697993        -0.390762
 H         2.378934        -0.078187        -1.229986
 H        -2.354857        -1.400986        -0.388677
 H        -3.896256         0.161152        -0.982313
 H        -2.771086         1.603450        -0.970219
 H        -2.485575         0.257878        -2.017659
 H        -2.886837        -1.172881         3.634878
 H        -3.762792         0.323333         3.447273
 H        -4.703842        -1.153775         3.396103
