19
Iteration:  4224
 C         1.239979        -1.551392         0.141046
 C         0.260899        -0.477055        -0.068761
 C        -0.876623        -0.058621        -0.199172
 C        -2.226354         0.124624        -0.375150
 C        -2.772901         1.423675        -1.089412
 O        -3.049023         0.192442         0.915341
 C        -3.035452        -0.965586         1.711384
 C        -3.948492        -0.807025         2.968783
 O        -2.589661        -1.990502         1.296638
 H         0.729235        -2.519917         0.297935
 H         2.057560        -1.751803        -0.584794
 H         1.802650        -1.325407         1.138748
 H        -2.709882        -0.778389        -0.780536
 H        -3.869108         1.526916        -0.733508
 H        -2.204498         2.330734        -1.021249
 H        -2.771468         1.178951        -2.170743
 H        -4.986987        -0.662997         2.653035
 H        -3.931865        -1.794151         3.434995
 H        -3.656149        -0.010357         3.629787
