19
Iteration:  3054charge 0 multiplicity 1
 C         1.857703        -0.542073         0.291849
 C         0.450587        -0.375823         0.163141
 C        -0.738702        -0.209439        -0.030634
 C        -2.173625        -0.156251        -0.286164
 C        -2.765257         0.751224        -1.347039
 O        -2.847056         0.149532         0.982154
 C        -3.399692        -1.020624         1.543839
 C        -3.821747        -0.685669         3.051113
 O        -3.548776        -2.090847         1.008372
 H         2.172489        -0.789966         1.338985
 H         2.142996        -1.457789        -0.208262
 H         2.294691         0.053002        -0.388237
 H        -2.498958        -1.186011        -0.471008
 H        -3.882940         0.730959        -0.996725
 H        -2.629334         1.793406        -1.193348
 H        -2.596126         0.342278        -2.301531
 H        -3.060376        -0.311102         3.712142
 H        -4.532910         0.112901         2.952702
 H        -4.085632        -1.686750         3.390457
