19
Iteration:  1849charge 0 multiplicity 1
 C         2.034154         0.423988         0.016463
 C         0.628173         0.033132        -0.108230
 C        -0.547231        -0.111459        -0.170174
 C        -1.950681        -0.587259        -0.096754
 C        -2.944430         0.330582        -0.872002
 O        -2.367314        -0.645460         1.256143
 C        -3.585100        -1.200203         1.532822
 C        -3.937094        -0.669491         2.925181
 O        -4.273955        -1.800092         0.814642
 H         2.887649        -0.072746        -0.721915
 H         2.014552         1.546013        -0.084022
 H         2.450506         0.200122         0.997555
 H        -2.034733        -1.662381        -0.422485
 H        -2.819900         1.334014        -0.497948
 H        -2.531620         0.165859        -1.967314
 H        -3.934402        -0.059208        -0.680313
 H        -3.100477        -0.084934         3.358078
 H        -4.736349         0.042815         2.810231
 H        -4.413477        -1.261584         3.661610
