19
Iteration:  3849
 C         2.088312        -0.253099        -0.371247
 C         0.684518        -0.266272        -0.330311
 C        -0.506057        -0.326808        -0.052910
 C        -1.888750        -0.440481         0.013789
 C        -2.694252         0.644777        -0.737172
 O        -2.380855        -0.551683         1.413766
 C        -3.614647        -0.963154         1.628823
 C        -4.304077        -0.507231         2.965742
 O        -4.313649        -1.594608         0.812860
 H         2.544770        -0.749565        -1.152165
 H         2.500820         0.744367        -0.508124
 H         2.624430        -0.640006         0.476008
 H        -2.052528        -1.468820        -0.461916
 H        -3.800320         0.415664        -0.814628
 H        -2.555258         1.567962        -0.158975
 H        -2.129625         0.658229        -1.729020
 H        -5.303332        -0.926890         2.989739
 H        -3.696790        -0.810387         3.824556
 H        -4.306838         0.557997         2.832096
