19
Iteration:  1036
 C         1.937632         0.420533         0.045014
 C         0.498818         0.247083        -0.000834
 C        -0.673256        -0.080680         0.004192
 C        -2.127068        -0.310558        -0.266546
 C        -2.893579         0.799220        -1.101774
 O        -2.797335        -0.281577         1.092445
 C        -3.430100        -1.362903         1.587305
 C        -3.888621        -1.101146         3.032578
 O        -3.630732        -2.439238         0.976188
 H         2.405664         0.236806         1.110579
 H         2.556393        -0.204402        -0.656911
 H         2.126983         1.370145        -0.196011
 H        -2.253736        -1.283594        -0.598446
 H        -2.605741         1.820283        -0.917786
 H        -2.785189         0.582710        -2.124100
 H        -3.921143         0.571235        -0.822889
 H        -4.741972        -1.797924         3.158871
 H        -3.062014        -1.392648         3.743147
 H        -4.057137        -0.059498         2.925720
