19
Iteration:  3573charge 0 multiplicity 1
 C         1.847308        -0.058063         0.314611
 C         0.490254        -0.354389        -0.019120
 C        -0.642496        -0.448986        -0.395813
 C        -2.088183        -0.605419        -0.291384
 C        -2.830452         0.318741        -1.216377
 O        -2.305697        -0.296849         1.158690
 C        -3.494750        -0.880934         1.646651
 C        -3.650736        -0.584571         3.125956
 O        -4.310673        -1.426324         0.910494
 H         2.476869        -0.583691        -0.460774
 H         2.192643         1.026474         0.343649
 H         2.096074        -0.380987         1.340168
 H        -2.210273        -1.688332        -0.307410
 H        -3.825153         0.223177        -0.905154
 H        -2.659738         1.423664        -1.033363
 H        -2.631870         0.111975        -2.249601
 H        -4.516036         0.088945         3.280073
 H        -3.934328        -1.519152         3.653632
 H        -2.805138        -0.095648         3.565768
