19
Iteration:  1585charge 0 multiplicity 1
 C         1.873696         0.302502         0.036908
 C         0.497974         0.207413        -0.199922
 C        -0.615286        -0.194651        -0.173297
 C        -2.012551        -0.463674        -0.219279
 C        -2.769393         0.655544        -0.897888
 O        -2.483508        -0.440317         1.260228
 C        -3.563102        -1.237429         1.584965
 C        -3.993870        -0.832351         3.006145
 O        -3.925061        -2.185084         0.882579
 H         2.092228         0.827384         1.085752
 H         2.435004        -0.597789        -0.108825
 H         2.301121         0.953919        -0.681222
 H        -2.203315        -1.461687        -0.528263
 H        -2.664303         1.657354        -0.339655
 H        -2.537583         0.678396        -1.917798
 H        -3.935673         0.589687        -0.904458
 H        -3.625251         0.172097         2.974420
 H        -5.045355        -0.925695         3.174912
 H        -3.388503        -1.489372         3.623941
