19
Iteration:   116
 C         1.764098         0.422759         0.292161
 C         0.327698         0.225221         0.128331
 C        -0.850418         0.226262        -0.161205
 C        -2.303291        -0.077540        -0.309805
 C        -3.027399         0.913495        -1.226009
 O        -2.897125        -0.287470         1.007396
 C        -3.193360        -1.476966         1.583698
 C        -3.713684        -1.414842         3.014305
 O        -3.163266        -2.551779         1.033196
 H         2.211098        -0.569524         0.405285
 H         2.187996         0.963752        -0.559013
 H         1.847840         1.124536         1.280118
 H        -2.315956        -1.079301        -0.769525
 H        -2.563137         1.993015        -1.143681
 H        -2.927021         0.342683        -2.238762
 H        -4.153039         0.841032        -0.973934
 H        -4.626282        -2.058385         3.020323
 H        -2.852092        -1.911783         3.476769
 H        -3.976658        -0.387704         3.312990
