19
Iteration:  3267
 C         1.565408        -0.920980         0.248743
 C         0.173228        -0.559253        -0.087189
 C        -1.030956        -0.503783        -0.176133
 C        -2.430024        -0.096897        -0.499079
 C        -2.484858         1.327537        -1.046137
 O        -3.262726        -0.024486         0.690881
 C        -3.130985        -0.962624         1.663178
 C        -4.255521        -0.763143         2.637238
 O        -2.284080        -1.846145         1.825688
 H         1.505876        -1.917663         0.674296
 H         2.413670        -0.871799        -0.477247
 H         1.863882        -0.133602         1.000524
 H        -2.761259        -0.846835        -1.259074
 H        -3.510194         1.572245        -1.377017
 H        -2.271615         2.054849        -0.079828
 H        -1.668049         1.539042        -1.901189
 H        -4.682003         0.251570         2.511634
 H        -5.090324        -1.392732         2.372590
 H        -4.001459        -0.910472         3.712067
