19
Iteration:   951
 C         1.958732         0.716922        -0.191007
 C         0.590815         0.281629         0.070824
 C        -0.584920        -0.023072        -0.056859
 C        -1.927714        -0.510153        -0.122414
 C        -2.860123         0.357031        -0.971409
 O        -2.491987        -0.394227         1.368457
 C        -3.540876        -1.275021         1.565704
 C        -4.058472        -1.205985         2.983245
 O        -4.012137        -2.048042         0.731983
 H         2.203658         1.489019         0.467922
 H         2.670403        -0.220816        -0.145155
 H         1.989685         1.069150        -1.246319
 H        -2.080951        -1.612855        -0.282369
 H        -3.329709         1.102506        -0.299074
 H        -2.382379         0.866435        -1.837486
 H        -3.606564        -0.263745        -1.476490
 H        -4.873657        -0.537248         3.242437
 H        -4.244240        -2.245739         3.264603
 H        -3.307380        -1.005346         3.689588
