19
Iteration:  3249
 C         1.459781        -0.863780         0.355574
 C         0.131827        -0.604961        -0.137111
 C        -1.053408        -0.505745        -0.158856
 C        -2.375451        -0.159033        -0.414631
 C        -2.372074         1.342451        -0.997636
 O        -3.345271        -0.121485         0.638844
 C        -3.169724        -0.913491         1.623399
 C        -4.213742        -0.768831         2.706668
 O        -2.232332        -1.727855         1.685651
 H         1.545673        -1.890237         0.715079
 H         2.036579        -0.878615        -0.561357
 H         1.987398        -0.060304         0.933631
 H        -2.920343        -0.659743        -1.201360
 H        -3.372945         1.500333        -1.382841
 H        -1.885613         2.016127        -0.424765
 H        -1.759551         1.311458        -1.825768
 H        -4.485882         0.262363         2.926501
 H        -5.074052        -1.469882         2.581944
 H        -3.794801        -1.193392         3.642976
