19
Iteration:  1793charge 0 multiplicity 1
 C         1.907412         0.619691        -0.151619
 C         0.545193         0.077995        -0.179495
 C        -0.560002        -0.381705        -0.093285
 C        -1.948786        -0.730464        -0.018869
 C        -2.620778         0.276607        -0.996844
 O        -2.356811        -0.574099         1.419215
 C        -3.589759        -1.088459         1.581503
 C        -4.030866        -0.891722         3.026539
 O        -4.276540        -1.559071         0.724158
 H         2.553894        -0.301793        -0.449280
 H         2.168124         1.473193        -0.722942
 H         2.052494         0.872153         0.911760
 H        -2.152114        -1.817837        -0.086600
 H        -2.593110         1.363515        -0.655299
 H        -2.174457         0.216735        -1.984285
 H        -3.649152         0.082306        -1.183938
 H        -3.765254        -1.702437         3.697279
 H        -3.736075         0.036053         3.465636
 H        -5.103370        -1.012614         3.016437
