19
Iteration:  1862charge 0 multiplicity 1
 C         2.033604         0.422204         0.052053
 C         0.657235        -0.082324        -0.128310
 C        -0.548853        -0.077196        -0.070812
 C        -1.962966        -0.511245        -0.143110
 C        -2.949467         0.350228        -0.895437
 O        -2.405166        -0.630695         1.257388
 C        -3.599074        -1.228465         1.579850
 C        -3.883728        -0.575209         2.942894
 O        -4.261832        -1.903569         0.783429
 H         2.699573         0.007149        -0.860203
 H         2.157644         1.585412         0.097935
 H         2.354172         0.084186         0.948179
 H        -1.930795        -1.488114        -0.620374
 H        -3.037789         1.371089        -0.625703
 H        -2.828640         0.405652        -2.083143
 H        -4.041386        -0.020641        -0.861060
 H        -3.089040         0.111183         3.230677
 H        -4.817423        -0.038558         2.722829
 H        -3.859583        -1.399071         3.671365
