19
Iteration:  4143
 C         1.096502        -1.451441         0.572366
 C        -0.055229        -0.718027         0.027071
 C        -1.067829        -0.174952        -0.423035
 C        -2.425012         0.274940        -0.433883
 C        -2.795904         1.527849        -1.140034
 O        -2.963260         0.208897         0.854541
 C        -2.983749        -1.001439         1.572570
 C        -3.555248        -0.886114         2.971147
 O        -2.450180        -1.970687         1.245237
 H         1.011091        -2.558370         0.281617
 H         1.992130        -1.031929        -0.003325
 H         1.335972        -1.419279         1.695160
 H        -3.032430        -0.618313        -0.970609
 H        -3.646032         1.466897        -1.726950
 H        -2.843420         2.356235        -0.396343
 H        -1.986278         1.679500        -1.873788
 H        -3.944178         0.110628         3.286011
 H        -4.215663        -1.770364         3.048377
 H        -2.692656        -1.193373         3.619530
