19
Iteration:  2931charge 0 multiplicity 1
 C         2.002192         0.204368         0.008364
 C         0.670649        -0.404650        -0.019469
 C        -0.529373        -0.596278        -0.136693
 C        -2.044719        -0.589866        -0.175494
 C        -2.642313         0.596763        -1.026461
 O        -2.396147        -0.490073         1.245357
 C        -3.626448        -0.913849         1.578116
 C        -3.970684        -0.700079         3.036555
 O        -4.389971        -1.516396         0.825500
 H         1.864829         1.210860         0.829287
 H         2.832316        -0.436317         0.319333
 H         2.102078         0.645084        -0.958895
 H        -2.326672        -1.540356        -0.659337
 H        -3.678187         0.679389        -0.765916
 H        -2.041243         1.524888        -0.842141
 H        -2.575173         0.294128        -2.132562
 H        -3.436180        -1.353722         3.766727
 H        -3.531311         0.277596         3.288248
 H        -5.054071        -0.701037         3.159380
