19
Iteration:   959
 C         1.931820         0.707782        -0.196388
 C         0.596370         0.253251         0.068893
 C        -0.556325        -0.079741        -0.079343
 C        -1.990490        -0.442393        -0.064930
 C        -2.880485         0.406309        -1.053360
 O        -2.488962        -0.395991         1.319540
 C        -3.489352        -1.241878         1.600870
 C        -4.069074        -1.272692         2.982665
 O        -3.974572        -2.054130         0.798913
 H         2.300483         1.430809         0.653460
 H         2.604502        -0.219884        -0.090602
 H         2.008175         1.114577        -1.103209
 H        -2.060408        -1.448839        -0.270766
 H        -3.468449         1.093502        -0.445001
 H        -2.274050         0.870917        -1.710663
 H        -3.664397        -0.210430        -1.502456
 H        -4.956262        -0.614024         2.932788
 H        -4.293454        -2.357644         3.152344
 H        -3.384743        -0.765328         3.710299
