19
Iteration:  2090charge 0 multiplicity 1
 C         1.884785        -0.360192         0.238926
 C         0.390078        -0.369165         0.059618
 C        -0.755593        -0.069361        -0.188234
 C        -2.191454        -0.127255        -0.431538
 C        -2.917783         1.021817        -1.146631
 O        -2.985339        -0.032076         0.924868
 C        -3.276434        -1.142779         1.660128
 C        -4.047421        -0.842031         2.951919
 O        -3.105121        -2.309826         1.258968
 H         2.316829         0.699046         0.113964
 H         2.212588        -0.778319         1.238657
 H         2.331823        -0.932442        -0.563240
 H        -2.444791        -1.178816        -0.882342
 H        -2.708238         1.852431        -0.508951
 H        -2.539952         1.477358        -2.097246
 H        -4.040030         0.870247        -1.326025
 H        -3.987168        -1.696399         3.645736
 H        -3.667927         0.184316         3.254633
 H        -5.146569        -0.704740         2.774231
