19
Iteration:  1937
 C         1.951202         0.170183         0.135993
 C         0.477221         0.056072        -0.208320
 C        -0.662647        -0.340703        -0.102553
 C        -2.151965        -0.417906        -0.152259
 C        -2.659578         0.560126        -1.157645
 O        -2.593094        -0.252971         1.199794
 C        -3.514134        -1.091906         1.619510
 C        -3.989520        -0.813798         3.065599
 O        -3.862252        -2.090121         0.956453
 H         2.447511         0.473674        -0.891200
 H         2.131213         1.035245         0.856369
 H         2.379103        -0.696533         0.517114
 H        -2.530501        -1.346023        -0.612084
 H        -2.511279         1.561241        -0.948837
 H        -2.124953         0.300498        -2.159537
 H        -3.746009         0.562603        -1.380137
 H        -4.547292         0.111137         3.102814
 H        -4.638399        -1.651111         3.333485
 H        -3.083083        -0.670653         3.600402
