19
Iteration:   333charge 0 multiplicity 1
 C         1.616565        -0.198195         0.372274
 C         0.152443        -0.062922         0.027403
 C        -1.067800         0.103145        -0.057785
 C        -2.486682        -0.117783        -0.369892
 C        -3.100673         1.141211        -1.285439
 O        -3.352123        -0.197839         0.897008
 C        -3.002155        -1.276758         1.629614
 C        -3.787948        -1.471445         2.801441
 O        -2.101416        -2.036155         1.318132
 H         2.083146         0.796435         0.038549
 H         1.629535        -0.334536         1.465321
 H         2.175772        -1.036169        -0.098493
 H        -2.641969        -1.065344        -0.917833
 H        -3.244565         2.080163        -0.641949
 H        -2.346415         1.342611        -2.045890
 H        -4.131561         0.964694        -1.610971
 H        -3.441415        -2.420373         3.238598
 H        -3.925460        -0.604288         3.483052
 H        -4.855394        -1.717478         2.558747
