19
Iteration:  1764
 C         1.923642         0.751350        -0.288617
 C         0.732550        -0.150221        -0.090227
 C        -0.441158        -0.386316         0.145190
 C        -1.908921        -0.649626        -0.028738
 C        -2.600588         0.241031        -0.967816
 O        -2.483303        -0.440818         1.299381
 C        -3.709868        -1.023194         1.558970
 C        -3.970625        -1.020132         3.119751
 O        -4.435993        -1.593359         0.683103
 H         2.816825         0.045019        -0.341407
 H         1.972070         1.390249        -1.270301
 H         2.043478         1.362400         0.565656
 H        -2.101481        -1.695463        -0.203765
 H        -2.565212         1.283813        -0.873873
 H        -2.255417         0.160766        -2.120914
 H        -3.609113        -0.183253        -0.996906
 H        -4.064795        -2.129145         3.369640
 H        -3.039527        -0.666183         3.630070
 H        -4.901277        -0.511672         3.460979
