19
Iteration:   369charge 0 multiplicity 1
 C         1.573035        -0.201185         0.303190
 C         0.191853         0.139500         0.087878
 C        -0.993659         0.019831        -0.084291
 C        -2.412910        -0.164615        -0.320392
 C        -3.182484         1.041690        -1.141433
 O        -3.187180        -0.189876         0.912954
 C        -3.018866        -1.274211         1.594875
 C        -3.940177        -1.382228         2.781419
 O        -2.168745        -2.059594         1.243888
 H         2.159482         0.608907         0.499380
 H         1.707362        -0.843058         1.223144
 H         2.040491        -0.752928        -0.669676
 H        -2.524809        -1.081083        -0.847496
 H        -3.367592         1.904713        -0.424590
 H        -2.619279         1.417106        -2.012286
 H        -4.087354         0.529972        -1.652615
 H        -3.307205        -1.753192         3.545155
 H        -4.314929        -0.434798         3.108381
 H        -4.659462        -2.077468         2.390270
