19
Iteration:  3311charge 0 multiplicity 1
 C         1.662117        -0.957498         0.147669
 C         0.270427        -0.638256        -0.050614
 C        -0.815528        -0.175170        -0.272748
 C        -2.282574        -0.029866        -0.410136
 C        -2.648580         1.271193        -1.139593
 O        -3.070150         0.043971         0.770888
 C        -3.267640        -1.038831         1.702775
 C        -4.405708        -0.760085         2.596465
 O        -2.509084        -1.978195         1.955819
 H         1.794277        -2.034874         0.243431
 H         2.163779        -0.672075        -0.818637
 H         2.221752        -0.440956         0.992942
 H        -2.655018        -0.979498        -0.919527
 H        -3.751330         1.205664        -1.264349
 H        -2.651804         2.349199        -0.597572
 H        -2.207910         1.231434        -2.235457
 H        -4.923158         0.163229         2.340029
 H        -5.106125        -1.569723         2.542998
 H        -3.836944        -0.693277         3.544937
