19
Iteration:  2487
 C         1.819871        -0.395820         0.119257
 C         0.379301        -0.274782         0.083346
 C        -0.824070        -0.148376         0.091283
 C        -2.254580        -0.172452        -0.275995
 C        -2.586053         1.085264        -1.165244
 O        -3.149940        -0.035523         0.884813
 C        -3.333071        -1.241636         1.636715
 C        -3.705154        -0.714765         2.969043
 O        -3.425308        -2.349929         1.121995
 H         2.297604        -1.341096        -0.301345
 H         2.343379         0.358040        -0.422689
 H         2.045854        -0.336861         1.103221
 H        -2.379170        -0.967890        -1.020067
 H        -2.747881         1.968476        -0.662380
 H        -1.662683         1.396052        -1.738659
 H        -3.313708         0.985089        -1.981528
 H        -4.186689        -1.496446         3.555816
 H        -2.735952        -0.395113         3.377669
 H        -4.525337        -0.000857         2.805149
