19
Iteration:  2284charge 0 multiplicity 1
 C         1.590534        -0.782004         0.308639
 C         0.225706        -0.334920        -0.020650
 C        -0.952104        -0.082059         0.025503
 C        -2.344839         0.042806        -0.476872
 C        -2.699175         1.331634        -1.034227
 O        -3.423116        -0.202617         0.598085
 C        -3.223023        -1.203032         1.560078
 C        -3.872064        -0.822308         2.884686
 O        -2.458063        -2.144837         1.525658
 H         1.603683        -0.899914         1.315611
 H         1.764731        -1.724990        -0.236392
 H         2.429135         0.018567        -0.051837
 H        -2.474897        -0.611578        -1.293275
 H        -2.576580         2.144765        -0.351650
 H        -1.954240         1.694072        -1.836623
 H        -3.707698         1.289375        -1.627297
 H        -4.060860         0.238186         2.934583
 H        -4.736829        -1.491760         3.081191
 H        -2.978462        -1.241629         3.441998
