19
Iteration:  3832
 C         2.216916        -0.079717        -0.502018
 C         0.746340        -0.338558        -0.255275
 C        -0.465242        -0.392487         0.060889
 C        -2.019576        -0.626076         0.005035
 C        -2.622933         0.598748        -0.664342
 O        -2.445673        -0.532131         1.422244
 C        -3.797110        -0.939101         1.602447
 C        -4.178675        -0.440392         2.938038
 O        -4.356323        -1.570207         0.724030
 H         2.636206        -0.682464        -1.456074
 H         2.483365         1.006041        -0.541299
 H         2.753893        -0.485886         0.443660
 H        -2.280899        -1.644076        -0.275493
 H        -3.628118         0.366670        -0.868142
 H        -2.690626         1.463615         0.045699
 H        -2.242928         0.905101        -1.599456
 H        -5.219968        -0.739744         3.158320
 H        -3.584264        -0.935855         3.733228
 H        -4.061514         0.652428         3.121572
