19
Iteration:  4664
 C         1.974848        -0.255655        -0.120863
 C         0.561483        -0.481657        -0.378114
 C        -0.655694        -0.690862        -0.341162
 C        -2.061359        -0.706525        -0.242544
 C        -2.615961         0.609543        -0.705900
 O        -2.370642        -0.656380         1.205121
 C        -3.630809        -0.717366         1.676970
 C        -3.690891        -0.600769         3.200421
 O        -4.483809        -0.927655         0.919084
 H         2.118969         0.839658         0.081612
 H         2.303212        -0.757412         0.797397
 H         2.771461        -0.529002        -0.877575
 H        -2.720714        -1.561844        -0.657054
 H        -3.641770         0.711313        -0.377145
 H        -2.011896         1.462351        -0.276614
 H        -2.586348         0.627823        -1.893203
 H        -2.695898        -0.664542         3.688060
 H        -4.141171         0.392386         3.376658
 H        -4.420685        -1.386121         3.393728
