19
Iteration:  4042
 C         1.454879        -0.833697         0.397441
 C         0.027291        -0.797568         0.140251
 C        -1.068132        -0.418895        -0.238673
 C        -2.310993         0.070025        -0.531987
 C        -2.446263         1.513469        -0.972535
 O        -3.108232         0.072016         0.820046
 C        -3.216987        -1.036654         1.550881
 C        -3.267116        -0.735796         3.054750
 O        -3.221191        -2.204672         1.096482
 H         1.782448        -1.804833        -0.195417
 H         1.887709         0.079437        -0.126161
 H         1.875894        -0.808563         1.421452
 H        -3.048832        -0.636008        -1.146427
 H        -3.463221         1.857746        -0.603043
 H        -1.628492         2.080970        -0.603186
 H        -2.402255         1.661904        -2.061579
 H        -2.395261        -0.085533         3.233653
 H        -4.176650        -0.075219         3.225328
 H        -3.342375        -1.626260         3.698057
