19
Iteration:  2177charge 0 multiplicity 1
 C         1.730123        -0.488200         0.382041
 C         0.238778        -0.454557        -0.167361
 C        -0.951152        -0.273072        -0.323175
 C        -2.371956        -0.079729        -0.451340
 C        -2.604334         1.218205        -1.202384
 O        -3.204606         0.093038         0.978544
 C        -3.266781        -1.105125         1.618075
 C        -4.065050        -1.023844         2.961678
 O        -2.632017        -2.110752         1.383552
 H         1.867801         0.244921         1.143271
 H         1.789574        -1.490884         0.869841
 H         2.586341        -0.418420        -0.326683
 H        -2.838842        -1.006620        -0.949074
 H        -2.047210         2.003782        -0.778416
 H        -2.349509         0.932166        -2.199096
 H        -3.661149         1.568319        -1.000078
 H        -3.466520        -0.609184         3.738329
 H        -5.106722        -0.690744         2.968746
 H        -3.989424        -2.104984         3.245413
