19
Iteration:  4870charge 0 multiplicity 1
 C         1.881662        -0.726130        -0.552352
 C         0.483593        -0.545287        -0.141732
 C        -0.712818        -0.489723         0.024830
 C        -2.116842        -0.231696        -0.183355
 C        -2.431572         1.057214        -0.755589
 O        -2.685651        -0.023793         1.187235
 C        -3.522354        -0.964537         1.633028
 C        -3.906891        -0.437414         2.991241
 O        -3.972094        -1.999837         1.127328
 H         1.955377        -0.185417        -1.525908
 H         2.524440        -0.197863         0.173385
 H         2.216720        -1.846372        -0.452591
 H        -2.758088        -1.057452        -0.461018
 H        -3.467242         1.351491        -0.569027
 H        -1.794530         1.741543        -0.175238
 H        -2.073583         1.082945        -1.761065
 H        -4.291686        -1.261996         3.716863
 H        -3.156335         0.299662         3.370580
 H        -4.837592         0.159718         2.784993
