19
Iteration:  1308
 C         1.535595        -0.342976         0.485665
 C         0.156442        -0.256808        -0.032493
 C        -1.044313        -0.265535        -0.314243
 C        -2.483610        -0.108538        -0.409926
 C        -2.937351         1.251294        -1.131116
 O        -3.212311        -0.057517         0.849052
 C        -3.035175        -1.200249         1.604569
 C        -3.905869        -1.215246         2.890503
 O        -2.213828        -2.031727         1.330598
 H         2.364013        -0.429785        -0.279163
 H         1.703558         0.384715         1.177464
 H         1.529660        -1.292624         1.091386
 H        -2.916217        -0.882687        -1.078357
 H        -2.542986         2.172722        -0.675208
 H        -2.599048         1.077283        -2.244585
 H        -4.014469         1.338172        -1.096464
 H        -4.973154        -1.239868         2.756045
 H        -3.543076        -2.109485         3.292789
 H        -3.688354        -0.268100         3.382385
