19
Iteration:  4666
 C         1.981199        -0.270365        -0.128797
 C         0.567967        -0.474985        -0.391195
 C        -0.644989        -0.671295        -0.336675
 C        -2.056740        -0.698666        -0.221331
 C        -2.625849         0.599352        -0.703321
 O        -2.376511        -0.651594         1.199772
 C        -3.628050        -0.738742         1.671734
 C        -3.689664        -0.585124         3.207599
 O        -4.500250        -0.928866         0.906980
 H         2.195970         0.864799         0.053490
 H         2.210640        -0.820162         0.831332
 H         2.813630        -0.495322        -0.847911
 H        -2.685822        -1.586317        -0.658016
 H        -3.685547         0.735164        -0.388795
 H        -2.003322         1.427734        -0.239042
 H        -2.578090         0.569101        -1.792451
 H        -2.683809        -0.645652         3.646627
 H        -4.111078         0.381784         3.453396
 H        -4.408495        -1.394574         3.364555
