19
Iteration:  2928charge 0 multiplicity 1
 C         1.996475         0.222085         0.023034
 C         0.664881        -0.407239        -0.051021
 C        -0.542441        -0.594582        -0.122938
 C        -2.008623        -0.607869        -0.158827
 C        -2.656942         0.600076        -1.040410
 O        -2.393902        -0.516464         1.260471
 C        -3.646510        -0.887678         1.607676
 C        -3.962563        -0.708136         3.034072
 O        -4.381254        -1.499590         0.794618
 H         1.932945         1.141274         0.636808
 H         2.764419        -0.454820         0.310205
 H         2.119992         0.696095        -0.935899
 H        -2.205580        -1.587791        -0.613489
 H        -3.657977         0.624876        -0.700541
 H        -2.009625         1.496447        -0.836308
 H        -2.656774         0.310483        -2.100605
 H        -3.490975        -1.380590         3.758500
 H        -3.542675         0.306751         3.314739
 H        -5.092311        -0.641327         3.103237
