19
Iteration:  3234
 C         1.541041        -0.869862         0.313432
 C         0.135991        -0.637790        -0.038151
 C        -1.068710        -0.511746        -0.149817
 C        -2.451052        -0.066894        -0.563571
 C        -2.317819         1.305366        -1.054485
 O        -3.477104        -0.078735         0.576462
 C        -3.181280        -0.963602         1.713667
 C        -4.177190        -0.825194         2.849753
 O        -2.191591        -1.719602         1.627994
 H         1.593895        -1.647199         1.049641
 H         2.340500        -0.987985        -0.459583
 H         1.728527        -0.070818         1.074728
 H        -2.802297        -0.862166        -1.229281
 H        -3.258463         1.837860        -1.162392
 H        -1.746827         1.913086        -0.148592
 H        -1.753754         1.374420        -2.106440
 H        -4.342102         0.270652         2.907335
 H        -5.089590        -1.276556         2.483134
 H        -3.826574        -1.274856         3.787698
