19
Iteration:  4678charge 0 multiplicity 1
 C         2.035032        -0.324876        -0.135774
 C         0.639377        -0.427145        -0.491759
 C        -0.582772        -0.573073        -0.307877
 C        -2.073214        -0.656497        -0.113203
 C        -2.697332         0.584833        -0.721894
 O        -2.320776        -0.650939         1.283084
 C        -3.659252        -0.801818         1.615303
 C        -3.679547        -0.549269         3.167321
 O        -4.635192        -0.959587         0.864744
 H         2.323556         0.757860         0.170483
 H         2.121049        -0.941780         0.822263
 H         2.636851        -0.869541        -0.902041
 H        -2.312426        -1.671898        -0.597635
 H        -3.804796         0.711639        -0.536294
 H        -2.100613         1.456485        -0.319324
 H        -2.502365         0.649283        -1.739498
 H        -2.679123        -0.729328         3.559269
 H        -4.092682         0.368154         3.554106
 H        -4.202518        -1.313121         3.783417
