19
Iteration:  1048charge 0 multiplicity 1
 C         1.941147         0.400307         0.060246
 C         0.460077         0.205981         0.136027
 C        -0.716700        -0.048025        -0.059311
 C        -2.151774        -0.245570        -0.302611
 C        -2.892443         0.804274        -1.135293
 O        -2.770237        -0.313522         1.031170
 C        -3.394310        -1.399663         1.606504
 C        -3.896471        -1.090933         3.026427
 O        -3.574142        -2.442583         1.008630
 H         2.431272         0.097874         1.031533
 H         2.289409        -0.282782        -0.845063
 H         2.180177         1.382310        -0.120946
 H        -2.330238        -1.140835        -0.849303
 H        -2.491498         1.784836        -1.034874
 H        -2.891216         0.543389        -2.212480
 H        -3.906799         0.963268        -0.757074
 H        -4.646632        -1.814606         3.437645
 H        -3.014948        -1.109745         3.726284
 H        -4.400463        -0.197048         3.322166
