19
Iteration:  4226charge 0 multiplicity 1
 C         1.272776        -1.537260         0.132310
 C         0.241097        -0.477459        -0.066230
 C        -0.873568        -0.065920        -0.206232
 C        -2.237195         0.133899        -0.351117
 C        -2.759390         1.420264        -1.083004
 O        -3.044883         0.182693         0.906365
 C        -3.041511        -0.946585         1.723896
 C        -3.945860        -0.809301         2.963225
 O        -2.604750        -2.004202         1.302175
 H         0.681147        -2.477149         0.271666
 H         2.039628        -1.792583        -0.585680
 H         1.788899        -1.318974         1.074271
 H        -2.665472        -0.733577        -0.785065
 H        -3.910741         1.524283        -0.770839
 H        -2.113255         2.274335        -1.046700
 H        -2.772854         1.212539        -2.239801
 H        -4.986217        -0.675126         2.603661
 H        -3.912683        -1.774550         3.473299
 H        -3.697413        -0.019172         3.635895
