19
Iteration:  3863
 C         2.120116        -0.367934        -0.327034
 C         0.671524        -0.207280        -0.289350
 C        -0.558307        -0.252117        -0.150885
 C        -1.960234        -0.383816        -0.029368
 C        -2.697208         0.691985        -0.818122
 O        -2.290695        -0.497091         1.491544
 C        -3.598463        -0.982369         1.703038
 C        -4.281759        -0.571995         2.890571
 O        -4.261723        -1.646772         0.839432
 H         2.392671        -1.103631        -1.117899
 H         2.583778         0.621274        -0.314040
 H         2.161157        -0.868282         0.692218
 H        -2.418422        -1.313926        -0.487968
 H        -3.688046         0.425434        -0.735153
 H        -2.529194         1.761386        -0.502270
 H        -2.541708         0.710958        -1.897422
 H        -5.198721        -1.153815         2.938500
 H        -3.738725        -0.677659         3.832077
 H        -4.626122         0.446620         2.875949
