19
Iteration:  3299charge 0 multiplicity 1
 C         1.658573        -0.954354         0.133357
 C         0.223333        -0.639019         0.027201
 C        -0.874345        -0.256396        -0.357088
 C        -2.281468         0.010448        -0.430595
 C        -2.670269         1.295456        -1.127656
 O        -3.104874        -0.073686         0.793985
 C        -3.181793        -1.005271         1.684363
 C        -4.404890        -0.753676         2.637675
 O        -2.463773        -1.911928         1.913295
 H         1.813644        -2.002340         0.423055
 H         2.355071        -0.699322        -0.728514
 H         1.964336        -0.357805         1.030683
 H        -2.743905        -0.683505        -1.207278
 H        -3.656845         1.256767        -1.549362
 H        -2.256307         2.226808        -0.471407
 H        -1.859147         1.405606        -2.013958
 H        -4.894571         0.201774         2.404518
 H        -5.106552        -1.562521         2.598287
 H        -4.219401        -0.716827         3.729319
