19
Iteration:  1062charge 0 multiplicity 1
 C         1.829767         0.332944         0.106640
 C         0.403181         0.129899         0.237525
 C        -0.746424         0.047582        -0.170407
 C        -2.191549        -0.258383        -0.306874
 C        -2.865307         0.876804        -1.145551
 O        -2.762756        -0.281138         1.056564
 C        -3.396694        -1.391444         1.560931
 C        -3.850850        -1.096855         3.019603
 O        -3.489842        -2.467939         1.065263
 H         2.441263        -0.092841         0.819303
 H         2.162970        -0.208358        -0.910589
 H         2.230268         1.451927        -0.007249
 H        -2.307225        -1.356488        -0.682083
 H        -2.109465         1.666610        -1.159670
 H        -3.039457         0.482736        -2.279002
 H        -3.888353         1.096769        -0.810023
 H        -4.210401        -2.080558         3.286471
 H        -2.981121        -0.782125         3.594828
 H        -4.541500        -0.231451         2.902794
