19
Iteration:  3241
 C         1.489347        -0.848086         0.332444
 C         0.143569        -0.629444        -0.085409
 C        -1.065885        -0.509019        -0.158652
 C        -2.433783        -0.123043        -0.480108
 C        -2.302610         1.322364        -1.026162
 O        -3.421616        -0.095518         0.601607
 C        -3.135335        -0.955544         1.670787
 C        -4.197525        -0.821399         2.802641
 O        -2.223688        -1.701899         1.642650
 H         1.499776        -1.879386         0.890524
 H         2.223054        -0.945545        -0.488406
 H         1.836756        -0.062960         0.963011
 H        -2.706071        -0.860497        -1.315876
 H        -3.376124         1.711326        -1.162462
 H        -1.943146         2.077396        -0.325487
 H        -1.786086         1.287998        -1.967658
 H        -4.496261         0.228492         2.908764
 H        -5.210534        -1.216225         2.509174
 H        -3.769488        -1.144937         3.735028
