19
Iteration:   427
 C         1.650989         0.027301         0.273406
 C         0.263551         0.039482        -0.053930
 C        -0.934164         0.196894        -0.198311
 C        -2.396146        -0.095468        -0.415791
 C        -3.088466         1.125982        -1.115436
 O        -3.096974        -0.219435         0.889094
 C        -3.072183        -1.484298         1.635376
 C        -4.048639        -1.259919         2.851957
 O        -2.384235        -2.441235         1.409779
 H         1.900658         0.792261         1.083118
 H         2.071800        -0.937354         0.492161
 H         2.196201         0.355103        -0.610566
 H        -2.475813        -1.085870        -0.795220
 H        -2.717235         2.084150        -0.833384
 H        -2.922641         1.092260        -2.253841
 H        -4.147548         1.057440        -0.940398
 H        -3.416985        -1.023983         3.746797
 H        -4.853395        -0.534174         2.690362
 H        -4.504181        -2.177682         3.233338
