19
Iteration:  4694
 C         2.095754        -0.463320        -0.179953
 C         0.659963        -0.364715        -0.443925
 C        -0.568373        -0.465699        -0.279032
 C        -1.970657        -0.547427        -0.132434
 C        -2.743911         0.633644        -0.821980
 O        -2.347966        -0.703449         1.376968
 C        -3.694429        -0.807029         1.718580
 C        -3.703453        -0.600590         3.114335
 O        -4.659691        -1.014261         0.909337
 H         2.548456         0.468603        -0.256333
 H         2.212949        -0.958988         0.764299
 H         2.753045        -0.807677        -0.967375
 H        -2.388089        -1.398942        -0.583410
 H        -3.751799         0.332151        -0.773032
 H        -2.578627         1.547348        -0.318793
 H        -2.488381         0.583855        -1.970796
 H        -2.650840        -0.487535         3.433587
 H        -4.101191         0.467895         3.103495
 H        -4.451571        -1.208967         3.600261
