19
Iteration:  2081charge 0 multiplicity 1
 C         1.939550        -0.337401         0.212759
 C         0.472200        -0.323099        -0.023125
 C        -0.769684        -0.041388        -0.109861
 C        -2.222755        -0.099060        -0.461163
 C        -2.873247         1.014056        -1.191111
 O        -2.991155        -0.031219         0.929668
 C        -3.331261        -1.184393         1.641204
 C        -3.999264        -0.870120         2.993372
 O        -3.199874        -2.325116         1.305907
 H         2.525477         0.700888         0.098720
 H         1.972563        -0.751063         1.274642
 H         2.392628        -1.040483        -0.369556
 H        -2.558907        -1.084658        -0.821342
 H        -2.995936         1.908316        -0.481633
 H        -2.313201         1.231744        -2.069069
 H        -3.962427         0.797501        -1.386710
 H        -4.145684        -1.777815         3.553690
 H        -3.523705         0.036014         3.440471
 H        -5.009335        -0.565419         2.567391
