19
Iteration:   862
 C         1.873117         1.015995        -0.252626
 C         0.618341         0.418047        -0.036683
 C        -0.427165        -0.213686        -0.056661
 C        -1.843009        -0.672710        -0.049780
 C        -2.743231         0.275509        -0.923911
 O        -2.356656        -0.720591         1.406123
 C        -3.612151        -1.270501         1.581540
 C        -4.141238        -1.199314         3.015963
 O        -4.274866        -1.793356         0.688087
 H         1.859954         2.092155        -0.400311
 H         2.591725         0.825749         0.697990
 H         2.383921         0.564641        -1.055039
 H        -1.950959        -1.660649        -0.539374
 H        -2.459253         1.317315        -0.660776
 H        -2.648955         0.025432        -1.918179
 H        -3.814055         0.208604        -0.576564
 H        -3.521673        -0.478261         3.425988
 H        -5.185176        -1.121802         2.992410
 H        -3.948734        -2.136918         3.513283
