19
Iteration:  1889
 C         2.043813         0.328286         0.040048
 C         0.633563         0.013370        -0.000775
 C        -0.577999        -0.167357        -0.149129
 C        -2.000313        -0.525840        -0.190538
 C        -2.925324         0.477544        -1.008230
 O        -2.435290        -0.533568         1.124483
 C        -3.560183        -1.133217         1.547985
 C        -3.956312        -0.640616         2.967211
 O        -4.146930        -2.007516         0.986889
 H         2.534203         0.160436        -0.830977
 H         2.198682         1.290372         0.421245
 H         2.437721        -0.360098         0.906299
 H        -2.078774        -1.537688        -0.672057
 H        -3.116353         1.475874        -0.496601
 H        -2.619332         0.680955        -1.973254
 H        -3.917700         0.100851        -1.139607
 H        -3.643986         0.372607         3.282012
 H        -5.049133        -0.734750         2.946801
 H        -3.417740        -1.367584         3.612422
