19
Iteration:   968charge 0 multiplicity 1
 C         1.944539         0.672259        -0.145152
 C         0.575335         0.233120         0.021022
 C        -0.594304        -0.138360        -0.064067
 C        -2.044888        -0.386558        -0.045640
 C        -2.899866         0.441179        -1.084572
 O        -2.488794        -0.367958         1.290765
 C        -3.464744        -1.277171         1.620096
 C        -4.052602        -1.284202         2.980826
 O        -3.915911        -2.053348         0.845629
 H         2.380743         1.407877         0.698111
 H         2.662139        -0.093164        -0.214688
 H         2.089742         1.254322        -1.045718
 H        -2.110394        -1.363527        -0.477566
 H        -3.445738         1.285576        -0.649427
 H        -2.214018         0.939548        -1.726490
 H        -3.542470        -0.255210        -1.664766
 H        -5.061170        -0.923942         2.707887
 H        -4.395023        -2.304234         3.303942
 H        -3.544935        -0.672441         3.822906
