19
Iteration:  3149
 C         1.547906        -0.853661         0.473479
 C         0.224214        -0.500245        -0.048034
 C        -0.921013        -0.260130        -0.258390
 C        -2.287161        -0.058663        -0.467665
 C        -2.702649         1.245147        -1.138898
 O        -3.088051        -0.032202         0.767437
 C        -3.181087        -1.119625         1.685083
 C        -4.092735        -0.566312         2.764902
 O        -2.583930        -2.117749         1.507120
 H         1.420479        -1.454587         1.339162
 H         2.033907        -1.531447        -0.247135
 H         2.352460         0.010565         0.494890
 H        -2.887585        -0.801372        -1.032724
 H        -3.762955         1.063886        -1.406091
 H        -2.636467         2.129791        -0.538825
 H        -2.082417         1.331519        -2.032564
 H        -3.704325         0.344142         3.315776
 H        -5.095421        -0.250832         2.416344
 H        -4.011178        -1.420474         3.493839
