19
Iteration:  4038
 C         1.488152        -0.802262         0.376467
 C         0.065798        -0.804938         0.133772
 C        -1.025661        -0.408993        -0.228474
 C        -2.393090         0.063176        -0.532693
 C        -2.425920         1.465281        -0.965643
 O        -3.097442         0.113939         0.841167
 C        -3.247944        -1.029663         1.578993
 C        -3.283501        -0.748710         3.000363
 O        -3.251721        -2.217964         1.097212
 H         1.713430        -1.681201        -0.152536
 H         1.942566         0.013076        -0.127641
 H         1.839362        -0.866963         1.385643
 H        -3.002090        -0.711609        -1.055488
 H        -3.435434         1.775959        -0.570544
 H        -1.631581         2.209184        -0.550005
 H        -2.331377         1.594791        -2.037676
 H        -2.375556        -0.193625         3.195566
 H        -4.037958        -0.002571         3.209306
 H        -3.340489        -1.626182         3.644189
