19
Iteration:  2147charge 0 multiplicity 1
 C         1.639386        -0.436082         0.315599
 C         0.189008        -0.254781        -0.069418
 C        -0.985943        -0.355666        -0.233939
 C        -2.378865        -0.083686        -0.331638
 C        -2.686072         1.111491        -1.201886
 O        -2.885551         0.035277         1.019984
 C        -3.147910        -1.082950         1.688891
 C        -4.097812        -0.965035         2.868451
 O        -2.756728        -2.176256         1.232218
 H         2.162418         0.424910         0.926600
 H         1.670867        -1.335302         1.000943
 H         2.255833        -0.720462        -0.436485
 H        -2.828512        -0.936599        -0.890349
 H        -1.984635         2.017909        -0.993951
 H        -2.512703         0.697600        -2.162267
 H        -3.742942         1.412004        -1.091291
 H        -3.677178        -0.805763         3.863261
 H        -4.805357        -0.130998         2.806539
 H        -4.719258        -1.901941         2.829665
