19
Iteration:  4041charge 0 multiplicity 1
 C         1.463801        -0.823698         0.394363
 C         0.038310        -0.801234         0.138017
 C        -1.058151        -0.415318        -0.235922
 C        -2.329518         0.071051        -0.532628
 C        -2.439295         1.498734        -0.971454
 O        -3.105596         0.082612         0.825567
 C        -3.225551        -1.029925         1.560243
 C        -3.270193        -0.740154         3.040220
 O        -3.229391        -2.211074         1.095848
 H         1.752740        -1.781662        -0.194309
 H         1.900376         0.062569        -0.125741
 H         1.868895        -0.819965         1.399999
 H        -3.060014        -0.676637        -1.129881
 H        -3.478765         1.835767        -0.582395
 H        -1.621766         2.122072        -0.593892
 H        -2.379353         1.648109        -2.046420
 H        -2.399970        -0.117082         3.216265
 H        -4.142419        -0.050366         3.219148
 H        -3.342541        -1.628716         3.689177
