19
Iteration:  3233charge 0 multiplicity 1
 C         1.547458        -0.868946         0.315884
 C         0.138944        -0.640070        -0.031857
 C        -1.074440        -0.510110        -0.149364
 C        -2.448227        -0.062784        -0.570415
 C        -2.321794         1.306232        -1.058827
 O        -3.484199        -0.077948         0.575338
 C        -3.184577        -0.965829         1.714147
 C        -4.171346        -0.821926         2.853894
 O        -2.190800        -1.721103         1.628182
 H         1.612892        -1.659396         1.081881
 H         2.351528        -0.984180        -0.462062
 H         1.728415        -0.080060         1.047082
 H        -2.851110        -0.861675        -1.241504
 H        -3.276781         1.859283        -1.183987
 H        -1.695588         1.880527        -0.142610
 H        -1.744110         1.391307        -2.106355
 H        -4.314016         0.272753         2.924330
 H        -5.080319        -1.310102         2.486943
 H        -3.847535        -1.295651         3.775999
