19
Iteration:  2559charge 0 multiplicity 1
 C         1.846792        -0.178810         0.118797
 C         0.370188        -0.347478         0.148468
 C        -0.801386        -0.295983        -0.137469
 C        -2.262987        -0.178981        -0.254625
 C        -2.594413         0.814762        -1.249848
 O        -2.716655         0.003759         1.167139
 C        -3.387494        -1.084767         1.618967
 C        -3.894178        -0.893982         2.996057
 O        -3.622373        -2.098458         0.978953
 H         2.363916        -0.505812        -0.703908
 H         2.117857         0.919470         0.120216
 H         2.146884        -0.692663         1.137586
 H        -2.631500        -1.152759        -0.591358
 H        -1.835989         1.687435        -1.404700
 H        -2.619961         0.333558        -2.218292
 H        -3.581409         1.221671        -1.234396
 H        -3.269338        -1.373523         3.780436
 H        -3.877036         0.159900         3.224232
 H        -4.809396        -1.436432         2.992861
