19
Iteration:  1649charge 0 multiplicity 1
 C         2.178301         0.437449        -0.169978
 C         0.767786         0.118965        -0.047769
 C        -0.472762        -0.076662        -0.120812
 C        -1.927992        -0.536664        -0.024254
 C        -3.033860         0.247982        -0.993188
 O        -2.446798        -0.403723         1.330240
 C        -3.640433        -1.047327         1.606464
 C        -4.093027        -1.122991         3.032496
 O        -4.226594        -1.754017         0.740328
 H         2.827134         0.303103         0.762491
 H         2.570253        -0.150595        -0.926591
 H         2.133420         1.526985        -0.600291
 H        -1.929434        -1.566635        -0.457304
 H        -2.999269         1.296890        -0.453142
 H        -2.553989         0.292405        -1.907011
 H        -4.090966        -0.262834        -0.989222
 H        -4.828987        -0.376158         3.337347
 H        -4.445383        -2.124919         3.207385
 H        -3.347074        -0.993022         3.820059
