19
Iteration:   817
 C         1.644861         1.058119        -0.187342
 C         0.583919         0.113224        -0.107229
 C        -0.529729        -0.308967         0.024083
 C        -1.863667        -0.720513        -0.054497
 C        -2.614724         0.341012        -0.940105
 O        -2.458130        -0.578531         1.348474
 C        -3.576600        -1.195855         1.533256
 C        -3.949728        -1.211543         3.145941
 O        -4.151760        -1.783717         0.589233
 H         1.334922         1.991801        -0.766375
 H         1.987035         1.521300         0.872542
 H         2.519380         0.794578        -0.579002
 H        -1.942986        -1.799532        -0.309224
 H        -2.793221         1.138189        -0.210196
 H        -2.033032         0.639668        -1.745190
 H        -3.627419         0.037829        -1.197922
 H        -2.988415        -1.210890         3.580539
 H        -4.610608        -0.428509         3.348427
 H        -4.520786        -2.145101         3.346314
