19
Iteration:  1253charge 0 multiplicity 1
 C         1.526950        -0.369865         0.402559
 C         0.074683        -0.211693         0.166094
 C        -1.096758         0.011074        -0.078515
 C        -2.491023        -0.065922        -0.468408
 C        -2.857947         1.297896        -1.193592
 O        -3.377223        -0.265772         0.742157
 C        -3.000795        -1.337966         1.564051
 C        -3.747243        -1.044873         2.879135
 O        -2.207611        -2.182265         1.370244
 H         1.839592        -0.990061        -0.525029
 H         2.030521         0.524991         0.371926
 H         1.718765        -0.906485         1.369893
 H        -2.663464        -0.854271        -1.216228
 H        -2.219948         2.146969        -0.839367
 H        -2.630820         1.107530        -2.269277
 H        -3.951623         1.470718        -1.145688
 H        -4.201341        -0.072657         2.762729
 H        -4.509223        -1.781852         3.064608
 H        -3.029060        -1.164830         3.694792
