19
Iteration:  2601
 C         2.023918        -0.144450         0.319748
 C         0.556387        -0.252545        -0.136252
 C        -0.664454        -0.329575        -0.248867
 C        -2.144559        -0.312719        -0.273941
 C        -2.826523         0.813442        -1.031322
 O        -2.655591        -0.127344         1.088603
 C        -3.437141        -1.096326         1.598882
 C        -3.970451        -0.703569         2.930017
 O        -3.837731        -2.115928         0.994267
 H         2.596330        -0.146287        -0.695882
 H         2.299067         0.855874         0.627914
 H         2.378830        -0.930540         0.976525
 H        -2.613174        -1.302392        -0.503698
 H        -2.254006         1.807275        -0.829748
 H        -3.143840         0.492971        -1.957152
 H        -3.670795         0.964589        -0.398235
 H        -3.228605        -0.440196         3.735123
 H        -4.606353         0.170927         2.829480
 H        -4.410256        -1.615300         3.299995
