19
Iteration:  3225
 C         1.587708        -0.879005         0.386717
 C         0.128476        -0.669040         0.012616
 C        -1.088065        -0.497935        -0.157976
 C        -2.442225        -0.102606        -0.609314
 C        -2.354640         1.382593        -1.091069
 O        -3.531164        -0.090610         0.598053
 C        -3.158702        -0.990024         1.657459
 C        -4.114983        -0.802116         2.852025
 O        -2.232317        -1.718604         1.647506
 H         1.760824        -1.713750         0.990926
 H         2.254416        -0.936603        -0.495444
 H         1.984317         0.155387         0.808961
 H        -3.079940        -0.608670        -1.283812
 H        -3.233782         1.902276        -1.251245
 H        -1.493716         1.652082        -0.473742
 H        -1.675261         1.426790        -2.013932
 H        -4.241397         0.244428         3.206058
 H        -5.010388        -1.342061         2.590898
 H        -3.829805        -1.468889         3.707893
