19
Iteration:  1228
 C         1.632186        -0.365718         0.409774
 C         0.196367        -0.143343         0.058098
 C        -1.013227        -0.013837        -0.040756
 C        -2.426964        -0.018159        -0.427222
 C        -2.976583         1.237498        -1.189175
 O        -3.407429        -0.271602         0.637041
 C        -3.075766        -1.249442         1.571960
 C        -3.676219        -1.066272         2.978297
 O        -2.370449        -2.251396         1.360714
 H         1.976285        -1.101766        -0.194627
 H         2.212662         0.570647         0.134603
 H         1.707616        -0.580187         1.581741
 H        -2.496879        -0.778082        -1.286195
 H        -2.828820         2.215504        -0.545152
 H        -2.363912         1.349876        -2.050167
 H        -4.074789         0.991541        -1.546017
 H        -3.767801        -0.017255         3.238762
 H        -4.726809        -1.458361         3.031866
 H        -3.191879        -1.738314         3.655066
