19
Iteration:  4157
 C         1.097357        -1.523762         0.458597
 C        -0.093988        -0.806049         0.115929
 C        -0.960224        -0.037896        -0.328655
 C        -2.465820         0.164226        -0.523753
 C        -2.859156         1.562209        -1.199893
 O        -2.918587         0.234249         0.954396
 C        -2.934623        -0.945816         1.595772
 C        -3.664248        -0.881362         2.989797
 O        -2.367607        -1.994164         1.190317
 H         1.077040        -2.607627         0.339460
 H         2.009408        -1.088414        -0.031253
 H         1.233142        -1.196502         1.578138
 H        -2.890492        -0.710419        -1.102849
 H        -3.842404         1.433094        -1.697801
 H        -2.840743         2.434420        -0.481015
 H        -2.181786         1.873881        -1.976046
 H        -4.280106        -0.008751         3.163958
 H        -4.321140        -1.746106         3.127050
 H        -2.881313        -0.923814         3.784446
