19
Iteration:  4969
 C         1.710591        -1.025814        -0.162095
 C         0.309729        -0.621681        -0.246343
 C        -0.876104        -0.516546        -0.279839
 C        -2.212324        -0.050091        -0.175752
 C        -2.607299         1.270872        -0.855719
 O        -2.726889         0.143326         1.208223
 C        -3.329023        -0.961423         1.660754
 C        -3.946661        -0.581949         2.969699
 O        -3.348012        -2.009461         1.143525
 H         2.087195        -1.271967        -1.180087
 H         2.272734        -0.157678         0.182738
 H         1.777772        -1.819522         0.676486
 H        -3.000194        -0.711801        -0.556776
 H        -3.676700         1.342972        -1.104642
 H        -2.363908         2.141465        -0.232821
 H        -2.014791         1.275654        -1.701066
 H        -5.037555        -0.630878         2.731345
 H        -3.716778        -1.321574         3.768736
 H        -3.804058         0.515797         3.182370
