19
Iteration:   990
 C         1.879307         0.612027        -0.067111
 C         0.538449         0.164322        -0.145301
 C        -0.636277        -0.087488        -0.034472
 C        -2.066312        -0.409721        -0.126556
 C        -2.822476         0.551415        -1.144733
 O        -2.607152        -0.295709         1.349124
 C        -3.464491        -1.296902         1.614560
 C        -4.051837        -1.221823         3.060254
 O        -3.754549        -2.177826         0.807328
 H         2.180865         0.924623         1.037074
 H         2.551217        -0.172304        -0.208021
 H         2.196177         1.426199        -0.694102
 H        -2.172414        -1.433770        -0.394420
 H        -3.214170         1.324917        -0.450162
 H        -2.166096         1.067948        -1.767958
 H        -3.678843         0.038431        -1.633597
 H        -5.139917        -1.213998         2.961487
 H        -3.863892        -2.170623         3.632578
 H        -3.518702        -0.302000         3.452797
