19
Iteration:  3919
 C         2.001201        -0.657820        -0.114583
 C         0.581350        -0.429592        -0.072018
 C        -0.619646        -0.183947        -0.050804
 C        -2.117134        -0.169548        -0.093620
 C        -2.915576         0.865469        -0.946206
 O        -2.568338        -0.051451         1.212760
 C        -3.515668        -0.977604         1.575636
 C        -3.890932        -0.735856         2.960577
 O        -3.938972        -1.898089         0.875554
 H         2.425459        -1.368786        -0.884627
 H         2.499151         0.315612        -0.239789
 H         2.352216        -0.995537         0.893144
 H        -2.483026        -1.084489        -0.582205
 H        -3.912762         0.975419        -0.630421
 H        -2.405510         1.756847        -0.540664
 H        -2.680777         0.863004        -1.969500
 H        -4.084424        -1.711977         3.396243
 H        -3.126150        -0.194031         3.489572
 H        -4.853091        -0.225876         2.866011
