19
Iteration:  3004charge 0 multiplicity 1
 C         1.927504        -0.273194         0.176630
 C         0.522197        -0.225658        -0.032073
 C        -0.683507        -0.369916        -0.071702
 C        -2.088575        -0.322107        -0.283835
 C        -2.497317         0.727109        -1.254325
 O        -2.736148        -0.043591         1.048636
 C        -3.565089        -1.068208         1.671554
 C        -3.762140        -0.712452         3.062662
 O        -4.144707        -1.992571         1.023919
 H         1.959821         0.126445         1.219576
 H         2.449067        -1.276052         0.170351
 H         2.538130         0.522000        -0.480686
 H        -2.351478        -1.353514        -0.718530
 H        -3.484735         0.547890        -1.606346
 H        -2.456118         1.772908        -0.761892
 H        -1.735218         0.600356        -2.085556
 H        -2.747202        -0.688645         3.513067
 H        -4.053027         0.380637         3.053771
 H        -4.384815        -1.456777         3.625847
