19
Iteration:  1252charge 0 multiplicity 1
 C         1.532393        -0.369864         0.395774
 C         0.081596        -0.213032         0.165318
 C        -1.093574         0.014429        -0.076586
 C        -2.494723        -0.062165        -0.468774
 C        -2.858310         1.298843        -1.198409
 O        -3.384343        -0.268339         0.744919
 C        -3.006984        -1.337489         1.566844
 C        -3.736637        -1.044799         2.869823
 O        -2.211274        -2.185595         1.374111
 H         1.846335        -0.971771        -0.469398
 H         2.054746         0.531946         0.361734
 H         1.713549        -0.919854         1.401859
 H        -2.661858        -0.883239        -1.218938
 H        -2.212632         2.179112        -0.839343
 H        -2.628918         1.124854        -2.250021
 H        -3.986539         1.457942        -1.160947
 H        -4.189565        -0.073525         2.776661
 H        -4.513237        -1.764429         3.088179
 H        -3.056714        -1.194019         3.679886
