19
Iteration:  2267charge 0 multiplicity 1
 C         1.596457        -0.779119         0.215019
 C         0.191759        -0.247940         0.184785
 C        -0.998767        -0.147801         0.011657
 C        -2.366707        -0.045281        -0.496857
 C        -2.691360         1.436742        -1.065086
 O        -3.398900        -0.254218         0.515375
 C        -3.138195        -1.150004         1.582766
 C        -3.812478        -0.824850         2.882549
 O        -2.500789        -2.149021         1.525036
 H         2.057044        -0.929224         1.294485
 H         1.709842        -1.789760        -0.245287
 H         2.291275        -0.209217        -0.284010
 H        -2.508564        -0.992628        -1.133841
 H        -2.897176         2.206447        -0.219904
 H        -1.914906         1.716012        -1.705690
 H        -3.617178         1.519398        -1.568311
 H        -4.076752         0.245221         3.090973
 H        -4.790963        -1.306216         2.944034
 H        -3.314259        -1.251294         3.720188
