19
Iteration:  2517
 C         1.879633        -0.305468         0.082948
 C         0.427148        -0.234808         0.030897
 C        -0.779739        -0.297316         0.073812
 C        -2.209029        -0.265375        -0.287256
 C        -2.559254         0.976328        -1.245265
 O        -3.106022         0.035348         0.934022
 C        -3.532367        -1.097129         1.600648
 C        -3.784705        -0.900759         3.076529
 O        -3.459602        -2.167443         1.092366
 H         2.316735        -1.137447        -0.387350
 H         2.415537         0.746706        -0.109540
 H         2.255949        -0.517585         1.207033
 H        -2.539127        -1.166683        -0.776200
 H        -2.302599         1.988480        -0.676428
 H        -1.700827         1.035429        -2.000558
 H        -3.550349         0.936593        -1.691376
 H        -3.427985        -1.887861         3.469997
 H        -3.061949        -0.125294         3.429350
 H        -4.772616        -0.603033         3.441975
