19
Iteration:  4093charge 0 multiplicity 1
 C         1.182049        -1.151009         0.536501
 C         0.014127        -0.632312        -0.054359
 C        -1.084322        -0.331561        -0.330743
 C        -2.463284         0.047087        -0.472408
 C        -2.485051         1.524540        -0.932042
 O        -3.154246         0.115703         0.800290
 C        -3.098849        -1.033584         1.564961
 C        -3.336856        -0.687742         3.009418
 O        -2.744015        -2.133885         1.093383
 H         1.250551        -2.185667         0.370224
 H         2.100131        -0.620694         0.407599
 H         0.977109        -1.043120         1.596648
 H        -3.118862        -0.526662        -1.043581
 H        -3.585901         1.808044        -0.986831
 H        -1.794994         2.136129        -0.292211
 H        -2.234114         1.600700        -1.979120
 H        -2.994628         0.305294         3.157461
 H        -4.328447        -0.927654         3.356230
 H        -2.724807        -1.416354         3.558038
