19
Iteration:  4961
 C         1.741335        -1.010585        -0.159298
 C         0.335915        -0.584807        -0.314141
 C        -0.908468        -0.527747        -0.287830
 C        -2.293048        -0.061343        -0.156983
 C        -2.552756         1.283151        -0.898395
 O        -2.652202         0.142277         1.211731
 C        -3.371759        -0.945065         1.702262
 C        -4.049443        -0.559374         3.010615
 O        -3.377078        -2.078281         1.127696
 H         2.259662        -1.253380        -1.105559
 H         2.396103        -0.177350         0.208293
 H         1.983176        -1.853770         0.577080
 H        -2.812508        -0.914988        -0.576930
 H        -3.636244         1.392380        -1.198377
 H        -2.418754         2.067976        -0.099331
 H        -1.840850         1.588007        -1.735695
 H        -5.127571        -0.674890         3.032180
 H        -3.538895        -1.155031         3.823974
 H        -3.711326         0.489021         3.208696
