19
Iteration:  4809
 C         2.029564        -0.630947        -0.523942
 C         0.592665        -0.634331        -0.414257
 C        -0.560292        -0.414889        -0.077486
 C        -2.071203        -0.262883         0.011447
 C        -2.492382         0.763880        -0.989740
 O        -2.593681         0.034271         1.424489
 C        -3.577011        -0.767793         1.776926
 C        -4.110577        -0.786146         3.119956
 O        -4.174735        -1.593481         1.013883
 H         2.599216         0.016934        -1.210607
 H         2.480224        -0.515324         0.473743
 H         2.290364        -1.591636        -0.926172
 H        -2.593688        -1.233913        -0.294737
 H        -3.560516         1.188286        -1.072251
 H        -1.859870         1.716019        -0.838857
 H        -2.313244         0.303443        -1.958998
 H        -3.629519        -1.576746         3.673136
 H        -3.794667         0.049991         3.728342
 H        -5.164512        -0.929458         2.910632
