19
Iteration:  1714
 C         1.917411         0.522699        -0.355733
 C         0.587866         0.219068        -0.026823
 C        -0.509332        -0.238614         0.135701
 C        -1.923026        -0.642587        -0.000457
 C        -2.404371         0.244953        -1.142449
 O        -2.530868        -0.505884         1.353068
 C        -3.755452        -1.072207         1.602667
 C        -3.959124        -1.162514         3.135917
 O        -4.408973        -1.549049         0.754501
 H         2.691744        -0.108675         0.043246
 H         1.984390         0.482657        -1.397441
 H         2.145263         1.652952        -0.070547
 H        -1.970289        -1.765239        -0.095111
 H        -2.124293         1.325756        -1.043480
 H        -1.875338         0.092332        -1.993843
 H        -3.489081         0.089304        -1.437190
 H        -4.854356        -1.757351         3.301751
 H        -3.103071        -1.765322         3.516679
 H        -3.936579        -0.146243         3.597508
