19
Iteration:  2766
 C         2.087291         0.127864        -0.333997
 C         0.678098        -0.091735        -0.053285
 C        -0.480858        -0.494349         0.073411
 C        -1.988367        -0.569559        -0.005332
 C        -2.450883         0.306394        -1.064394
 O        -2.500643        -0.289853         1.396318
 C        -3.763775        -0.925637         1.614271
 C        -4.150738        -0.926644         3.084071
 O        -4.377447        -1.404340         0.732447
 H         2.219053         1.133631        -0.813572
 H         2.781295         0.136018         0.513807
 H         2.475205        -0.548065        -1.089250
 H        -2.285693        -1.638886        -0.048118
 H        -3.299151        -0.231198        -1.573493
 H        -2.534297         1.390489        -0.851094
 H        -1.768771         0.349621        -1.913941
 H        -5.210326        -0.798385         3.243376
 H        -4.026136        -1.984055         3.392743
 H        -3.586454        -0.138876         3.630727
