19
Iteration:  3888charge 0 multiplicity 1
 C         2.085929        -0.560352        -0.208623
 C         0.641310        -0.189548        -0.193354
 C        -0.565718        -0.214502        -0.212276
 C        -2.054237        -0.312503        -0.059371
 C        -2.817583         0.737253        -0.807783
 O        -2.429113        -0.305095         1.349094
 C        -3.588134        -0.989522         1.659339
 C        -4.170336        -0.626114         2.995742
 O        -4.019700        -1.746435         0.785908
 H         2.321026        -1.370331        -1.036808
 H         2.627594         0.409389        -0.278350
 H         2.189757        -1.001250         0.807438
 H        -2.269814        -1.343551        -0.426789
 H        -3.901752         0.860296        -0.544152
 H        -2.298672         1.647082        -0.605316
 H        -2.798032         0.651182        -1.854002
 H        -4.878630        -1.395833         3.348617
 H        -3.441705        -0.385016         3.779966
 H        -4.838219         0.285047         2.882612
