19
Iteration:  2634
 C         1.997260        -0.187680         0.262754
 C         0.543852        -0.093507        -0.156983
 C        -0.660345        -0.170109        -0.286887
 C        -2.088184        -0.309886        -0.268434
 C        -2.778266         0.777884        -0.987724
 O        -2.484379        -0.416527         1.165442
 C        -3.500439        -1.140849         1.568274
 C        -4.047303        -0.534884         2.965960
 O        -3.959345        -2.115576         1.003236
 H         2.531786        -0.003307        -0.743702
 H         2.289476         0.613261         0.944172
 H         2.347367        -1.165116         0.650334
 H        -2.359729        -1.291327        -0.725581
 H        -2.687741         1.859369        -0.568267
 H        -2.454393         0.914230        -1.981668
 H        -3.776188         0.414252        -1.025980
 H        -3.319096         0.233123         3.328529
 H        -5.068308        -0.129607         2.926525
 H        -4.101939        -1.372996         3.648400
