19
Iteration:  1076charge 0 multiplicity 1
 C         1.786411         0.241527         0.134899
 C         0.336772         0.107452         0.165560
 C        -0.827991         0.025731        -0.144211
 C        -2.203365        -0.246107        -0.283879
 C        -2.816675         0.850940        -1.167552
 O        -2.793362        -0.193819         1.089211
 C        -3.301830        -1.388135         1.579761
 C        -3.792236        -1.096365         2.918572
 O        -3.401519        -2.481237         1.047758
 H         2.286045        -0.323778         1.007124
 H         2.175867         0.027881        -0.799456
 H         1.828254         1.411408         0.359653
 H        -2.481645        -1.253091        -0.753966
 H        -2.300180         1.866420        -1.280475
 H        -3.005487         0.496231        -2.174736
 H        -3.728566         1.216400        -0.592488
 H        -4.031507        -1.927406         3.567127
 H        -3.122469        -0.456358         3.473669
 H        -4.767167        -0.552608         2.884282
