19
Iteration:  3444charge 0 multiplicity 1
 C         1.891214        -0.471181        -0.001838
 C         0.448357        -0.382981        -0.005379
 C        -0.749773        -0.411314         0.051068
 C        -2.178023        -0.285779        -0.270111
 C        -2.455944         0.820222        -1.195843
 O        -2.984799         0.016173         0.922183
 C        -3.472162        -0.981501         1.675432
 C        -4.028644        -0.435001         2.963742
 O        -3.490436        -2.148212         1.247769
 H         2.088182        -1.364856        -0.523173
 H         2.305794         0.316042        -0.604368
 H         2.330644        -0.660472         0.949716
 H        -2.412629        -1.288795        -0.582885
 H        -3.549281         0.706762        -1.287881
 H        -2.280994         1.761001        -0.641758
 H        -2.055077         0.787698        -2.177369
 H        -4.820884         0.274289         2.754898
 H        -4.349759        -1.135275         3.750010
 H        -3.216945         0.146175         3.364123
