19
Iteration:  4920charge 0 multiplicity 1
 C         1.869832        -0.817852        -0.308496
 C         0.448615        -0.693844        -0.389421
 C        -0.739316        -0.383412        -0.334101
 C        -2.149174        -0.092434        -0.202633
 C        -2.374269         1.304473        -0.857038
 O        -2.672086         0.044538         1.132157
 C        -3.438560        -1.012451         1.786303
 C        -4.085317        -0.555814         3.028033
 O        -3.833092        -2.138183         1.372401
 H         2.211984        -0.749571        -1.329707
 H         2.380102        -0.045372         0.314454
 H         2.020944        -1.716806         0.182716
 H        -2.927915        -0.758900        -0.613693
 H        -3.339683         1.244911        -1.360854
 H        -2.592069         2.047714        -0.088205
 H        -1.486266         1.582763        -1.553915
 H        -4.863133        -1.232763         3.272944
 H        -3.316123        -0.635770         3.810952
 H        -4.488506         0.433812         2.946869
