19
Iteration:  1321
 C         1.447839        -0.357036         0.505669
 C         0.189165        -0.342859        -0.182765
 C        -1.022608        -0.117109        -0.241112
 C        -2.453083        -0.025872        -0.477289
 C        -2.906609         1.206521        -1.164806
 O        -3.158393        -0.108850         0.922380
 C        -3.065032        -1.186790         1.676015
 C        -3.921286        -1.215275         2.899597
 O        -2.250061        -2.070554         1.301368
 H         2.358241        -0.149907        -0.266600
 H         1.510463         0.450663         1.167999
 H         1.634527        -1.251068         0.982380
 H        -2.778051        -0.954103        -0.901421
 H        -2.605884         2.081317        -0.661056
 H        -2.420646         1.315312        -2.217166
 H        -3.940990         1.129157        -1.320351
 H        -4.911494        -1.501946         2.544157
 H        -3.635086        -1.847020         3.730131
 H        -3.965343        -0.278217         3.493536
