19
Iteration:  4642
 C         1.859254        -0.112693        -0.137577
 C         0.477103        -0.626518        -0.131798
 C        -0.650378        -0.908585        -0.439670
 C        -2.078524        -0.616878        -0.263657
 C        -2.610005         0.757575        -0.877636
 O        -2.180710        -0.672700         1.275614
 C        -3.546062        -0.819595         1.658544
 C        -3.749275        -0.614721         3.190180
 O        -4.529617        -0.888713         0.974297
 H         1.984136         0.989595         0.052648
 H         2.457237        -0.650337         0.597084
 H         2.439399        -0.316770        -1.094930
 H        -2.799448        -1.475428        -0.570641
 H        -3.607929         1.069373        -0.641807
 H        -1.884937         1.500868        -0.454301
 H        -2.392949         0.636893        -2.046158
 H        -2.761221        -0.726994         3.677415
 H        -4.195735         0.363130         3.452386
 H        -4.412118        -1.445572         3.366282
