19
Iteration:  3821
 C         2.163295        -0.010976        -0.558839
 C         0.761581        -0.327301        -0.149046
 C        -0.457848        -0.544444         0.045246
 C        -1.899940        -0.604876         0.058829
 C        -2.629234         0.544036        -0.662230
 O        -2.526302        -0.538462         1.443789
 C        -3.783833        -0.900904         1.515489
 C        -4.152643        -0.439941         2.963053
 O        -4.428903        -1.536217         0.715696
 H         2.673874        -0.480161        -1.545820
 H         2.289606         1.102247        -0.663823
 H         2.905647        -0.334070         0.267159
 H        -2.175107        -1.564069        -0.404045
 H        -3.624041         0.342435        -0.875330
 H        -2.483925         1.324216         0.137289
 H        -2.007176         0.865683        -1.463017
 H        -5.211401        -0.569733         3.250337
 H        -3.416955        -1.034158         3.533271
 H        -3.803114         0.610649         2.985875
