19
Iteration:  4403charge 0 multiplicity 1
 C         2.009808        -0.635246        -0.463647
 C         0.530993        -0.672776        -0.167937
 C        -0.660960        -0.490850        -0.119705
 C        -2.112022        -0.220107        -0.119179
 C        -2.524278         1.042159        -0.803814
 O        -2.709056        -0.000286         1.189676
 C        -3.529521        -0.906764         1.708221
 C        -4.030745        -0.499179         3.008815
 O        -3.930025        -1.962852         1.113410
 H         2.478494        -0.978180         0.525755
 H         2.197288        -1.449295        -1.217206
 H         2.446418         0.277194        -0.904824
 H        -2.699135        -1.028809        -0.467528
 H        -3.545304         1.357010        -0.734506
 H        -1.987067         1.916448        -0.313070
 H        -2.220346         0.944779        -1.888376
 H        -4.164150        -1.357239         3.676968
 H        -3.479470         0.306185         3.483374
 H        -5.106739        -0.323525         2.804619
