19
Iteration:  4044charge 0 multiplicity 1
 C         1.440295        -0.855176         0.398732
 C         0.006268        -0.788340         0.145641
 C        -1.080688        -0.428545        -0.243231
 C        -2.288362         0.066223        -0.532376
 C        -2.462734         1.540803        -0.976277
 O        -3.112623         0.053782         0.809408
 C        -3.200321        -1.056214         1.533521
 C        -3.263664        -0.724449         3.080730
 O        -3.205271        -2.189401         1.098442
 H         1.841861        -1.801154        -0.161764
 H         1.857736         0.082304        -0.115907
 H         1.868996        -0.796899         1.453360
 H        -2.980684        -0.532910        -1.161733
 H        -3.408605         1.901046        -0.648852
 H        -1.617840         2.031929        -0.595611
 H        -2.449281         1.676328        -2.088363
 H        -2.391593        -0.035067         3.277239
 H        -4.218705        -0.138322         3.237415
 H        -3.335140        -1.618129         3.705851
