19
Iteration:  1816
 C         1.976007         0.482266        -0.046676
 C         0.523417         0.289205        -0.135655
 C        -0.483602        -0.424551        -0.195278
 C        -1.925225        -0.712168        -0.166695
 C        -2.777281         0.296594        -0.926220
 O        -2.289900        -0.656563         1.304469
 C        -3.562633        -1.039294         1.652483
 C        -4.162342        -0.824461         3.046920
 O        -4.221120        -1.624887         0.794980
 H         2.529652        -0.355507        -0.692306
 H         2.211855         1.465715        -0.482464
 H         2.271098         0.608976         0.947424
 H        -2.075830        -1.784391        -0.326405
 H        -2.719711         1.343113        -0.590690
 H        -2.500419         0.319264        -2.037056
 H        -3.810863         0.084978        -1.005493
 H        -3.527309        -1.191024         3.874456
 H        -4.301019         0.236001         3.160386
 H        -5.058998        -1.376357         3.131886
