19
Iteration:  2080
 C         1.938788        -0.336154         0.210510
 C         0.479373        -0.312789        -0.032468
 C        -0.769902        -0.041905        -0.104893
 C        -2.226274        -0.097043        -0.454101
 C        -2.869359         1.022213        -1.191815
 O        -2.991075        -0.032310         0.931216
 C        -3.337148        -1.191194         1.639074
 C        -3.996190        -0.870063         2.987724
 O        -3.208157        -2.325797         1.308904
 H         2.515876         0.687925         0.109009
 H         1.979709        -0.736970         1.275643
 H         2.408393        -1.069301        -0.353287
 H        -2.557088        -1.119476        -0.835295
 H        -3.003384         1.883669        -0.509165
 H        -2.275388         1.204435        -2.091616
 H        -3.964494         0.760273        -1.404380
 H        -4.131372        -1.772740         3.566448
 H        -3.511423         0.016130         3.509960
 H        -4.993818        -0.543203         2.562971
