19
Iteration:  2550
 C         1.819997        -0.196373         0.093961
 C         0.373675        -0.318549         0.139808
 C        -0.816095        -0.314860        -0.107260
 C        -2.205280        -0.204156        -0.204200
 C        -2.585755         0.881489        -1.301404
 O        -2.820422         0.034501         1.090189
 C        -3.325798        -1.087802         1.609432
 C        -3.870261        -0.945069         3.017671
 O        -3.617006        -2.098775         1.009953
 H         2.335829        -0.746231        -0.650090
 H         2.119832         0.916938         0.189382
 H         2.289776        -0.631127         1.135303
 H        -2.666502        -1.159864        -0.435107
 H        -1.831921         1.734592        -1.191814
 H        -2.339266         0.181889        -2.165736
 H        -3.621734         1.239447        -1.287119
 H        -3.292268        -1.540385         3.750202
 H        -3.853397         0.125961         3.310159
 H        -4.932323        -1.204056         3.085573
