19
Iteration:  1508charge 0 multiplicity 1
 C         1.835717         0.301121         0.028288
 C         0.436217        -0.221891        -0.025533
 C        -0.774373        -0.310331        -0.016074
 C        -2.265114        -0.286501        -0.158908
 C        -2.728553         0.917816        -1.079918
 O        -2.826107        -0.162520         1.129081
 C        -3.361816        -1.316101         1.607757
 C        -3.841692        -0.883240         2.932819
 O        -3.515976        -2.344059         0.972125
 H         1.975376         1.400529         0.489103
 H         2.440705        -0.356660         0.667942
 H         2.291719         0.249385        -0.945500
 H        -2.530409        -1.268822        -0.524616
 H        -2.419011         1.880366        -0.540944
 H        -2.160575         0.965077        -2.011467
 H        -3.870271         0.869965        -1.338870
 H        -2.974255        -0.486419         3.452131
 H        -4.636982        -0.200452         2.614390
 H        -4.348158        -1.716848         3.380053
