19
Iteration:  3318charge 0 multiplicity 1
 C         1.679960        -0.982016         0.150870
 C         0.329610        -0.611246        -0.088322
 C        -0.820088        -0.159775        -0.180642
 C        -2.276579        -0.028651        -0.441958
 C        -2.710808         1.230432        -1.196465
 O        -3.078944         0.082569         0.833465
 C        -3.245580        -1.060466         1.739946
 C        -4.418153        -0.726848         2.555527
 O        -2.542156        -1.994058         1.919682
 H         1.762405        -2.108145         0.054403
 H         2.235752        -0.642346        -0.748508
 H         2.181675        -0.374156         0.830137
 H        -2.362794        -0.962953        -1.009758
 H        -3.767654         1.163698        -1.196172
 H        -2.329762         2.004816        -0.606389
 H        -2.307520         1.402605        -2.160162
 H        -4.973540         0.209728         2.400965
 H        -5.025557        -1.647612         2.685073
 H        -4.008923        -0.727539         3.574939
