19
Iteration:     6
 C         1.848222         0.879295         0.030237
 C         0.494406         0.409404        -0.014713
 C        -0.670467         0.058109        -0.061813
 C        -2.008462        -0.354854        -0.090131
 C        -2.946060         0.520743        -0.925788
 O        -2.517878        -0.488346         1.260034
 C        -3.446763        -1.487932         1.556278
 C        -3.876728        -1.456364         2.910755
 O        -3.861331        -2.217350         0.698308
 H         2.222313         1.093976         1.054160
 H         2.650265         0.213362        -0.380208
 H         2.021108         1.910326        -0.533384
 H        -2.064382        -1.400596        -0.464935
 H        -3.173415         1.519167        -0.475159
 H        -2.604249         0.761028        -1.986948
 H        -4.034949         0.276316        -0.994894
 H        -4.618650        -2.246781         3.060988
 H        -2.987748        -1.552456         3.560409
 H        -4.170118        -0.457060         3.282945
