19
Iteration:   838
 C         1.767583         1.074304        -0.199873
 C         0.575640         0.219443        -0.140589
 C        -0.489433        -0.353568         0.103058
 C        -1.936187        -0.668378         0.034817
 C        -2.706044         0.269542        -0.847144
 O        -2.390718        -0.610174         1.375196
 C        -3.547540        -1.224019         1.505390
 C        -3.932781        -1.199220         2.949041
 O        -4.239892        -1.771079         0.623534
 H         1.443738         2.121838        -0.608089
 H         2.337843         1.282709         0.781861
 H         2.478737         0.727762        -0.834663
 H        -2.143385        -1.619240        -0.413258
 H        -2.648165         1.250310        -0.417749
 H        -2.285917         0.199678        -1.817469
 H        -3.731140        -0.065838        -0.917001
 H        -3.109325        -0.684218         3.428112
 H        -4.887803        -0.687957         2.927951
 H        -4.240601        -2.191985         3.353696
