19
Iteration:   939charge 0 multiplicity 1
 C         1.969028         0.723441        -0.208473
 C         0.587345         0.336440        -0.001328
 C        -0.598627         0.019703         0.023691
 C        -1.913215        -0.563518        -0.076281
 C        -2.847261         0.274815        -0.899300
 O        -2.524878        -0.476348         1.350657
 C        -3.614817        -1.269441         1.541173
 C        -3.985279        -1.176119         3.047822
 O        -4.045185        -2.008327         0.629909
 H         2.322606         1.598333         0.315797
 H         2.852484        -0.053678         0.038343
 H         2.076502         1.030672        -1.221423
 H        -1.776935        -1.558276        -0.496229
 H        -3.171441         1.117781        -0.263948
 H        -2.298062         0.710150        -1.691433
 H        -3.771405        -0.273720        -1.128447
 H        -4.699119        -0.340260         3.132917
 H        -4.600499        -2.032744         3.296532
 H        -3.083725        -0.931058         3.520246
