19
Iteration:  3830charge 0 multiplicity 1
 C         2.213736        -0.065386        -0.528772
 C         0.740868        -0.340218        -0.227944
 C        -0.455807        -0.418837         0.060727
 C        -2.020960        -0.619668         0.000718
 C        -2.617746         0.588213        -0.660083
 O        -2.463932        -0.534320         1.430674
 C        -3.791837        -0.919890         1.603070
 C        -4.170816        -0.432567         2.941104
 O        -4.373762        -1.572831         0.709372
 H         2.698452        -0.607452        -1.411272
 H         2.496639         1.009144        -0.545175
 H         2.790657        -0.451769         0.410471
 H        -2.227707        -1.668072        -0.226646
 H        -3.609341         0.363973        -0.828374
 H        -2.693906         1.405215         0.099949
 H        -2.186631         0.904962        -1.618211
 H        -5.192386        -0.720745         3.175901
 H        -3.548353        -0.980794         3.677320
 H        -4.006776         0.617758         3.078707
