19
Iteration:  4296charge 0 multiplicity 1
 C         1.687429        -0.952109        -0.196950
 C         0.246350        -0.883589        -0.118905
 C        -0.969230        -0.555901        -0.167094
 C        -2.328779        -0.039767        -0.326050
 C        -2.399255         1.335003        -0.904749
 O        -3.038216         0.295485         1.022781
 C        -3.266461        -0.934065         1.697983
 C        -4.025886        -0.652954         2.935360
 O        -3.018194        -2.035665         1.321794
 H         2.087720        -1.782920         0.378404
 H         2.221217        -1.022302        -1.152651
 H         2.123720        -0.092660         0.277892
 H        -3.074830        -0.745132        -0.723797
 H        -3.443030         1.510942        -1.086777
 H        -2.089491         1.947369         0.064029
 H        -1.691496         1.660773        -1.696887
 H        -4.918667        -1.294088         2.889660
 H        -3.473368        -0.917739         3.867765
 H        -4.263494         0.443394         2.956564
