19
Iteration:   264
 C         1.490424        -0.000085         0.440185
 C         0.156386         0.106061         0.005691
 C        -0.993228        -0.148237        -0.146846
 C        -2.382247        -0.149696        -0.493943
 C        -3.096231         1.181188        -0.974549
 O        -3.262258        -0.363664         0.779105
 C        -3.002302        -1.344831         1.573725
 C        -3.806047        -1.211833         2.854763
 O        -2.212673        -2.238095         1.272782
 H         2.115358         0.370799        -0.514612
 H         1.610064         0.683842         1.261423
 H         1.630705        -0.919524         0.726676
 H        -2.637384        -1.014115        -1.156305
 H        -2.746304         1.918897        -0.384002
 H        -2.921009         1.424329        -2.001517
 H        -4.046894         1.062846        -0.665256
 H        -4.190904        -2.231222         2.930349
 H        -3.129196        -0.749362         3.558857
 H        -4.555694        -0.460430         2.619847
