19
Iteration:   950
 C         1.959118         0.715451        -0.197003
 C         0.587323         0.285002         0.067559
 C        -0.587087        -0.017330        -0.052151
 C        -1.924001        -0.521559        -0.125687
 C        -2.856777         0.351945        -0.966099
 O        -2.493187        -0.394993         1.372442
 C        -3.549277        -1.281101         1.557415
 C        -4.053318        -1.197151         2.986695
 O        -4.013998        -2.044088         0.726123
 H         2.225861         1.532796         0.464941
 H         2.698379        -0.212590        -0.144374
 H         1.994375         1.052691        -1.192215
 H        -2.061319        -1.581108        -0.305293
 H        -3.303117         1.109053        -0.301190
 H        -2.411707         0.848819        -1.789561
 H        -3.603217        -0.275674        -1.457755
 H        -4.877057        -0.550328         3.258682
 H        -4.282670        -2.239696         3.281827
 H        -3.274647        -1.020591         3.680006
