19
Iteration:   282charge 0 multiplicity 1
 C         1.573118        -0.026275         0.399384
 C         0.072066         0.073533         0.158135
 C        -1.088068        -0.041892        -0.233897
 C        -2.530070        -0.131114        -0.443991
 C        -3.055128         1.147662        -1.043059
 O        -3.267504        -0.290109         0.774423
 C        -2.941869        -1.367288         1.575426
 C        -3.822974        -1.266387         2.781905
 O        -2.108491        -2.238981         1.328661
 H         2.138974         0.319066        -0.366618
 H         1.974625         0.347140         1.388530
 H         1.877940        -1.238593         0.483924
 H        -2.801012        -0.924103        -1.154325
 H        -2.555030         2.077061        -0.528845
 H        -2.799413         1.154916        -2.107949
 H        -4.217721         1.406316        -0.897295
 H        -4.120857        -2.182645         3.271920
 H        -3.274659        -0.760632         3.614000
 H        -4.761772        -0.737756         2.635462
