19
Iteration:   477charge 0 multiplicity 1
 C         1.644555         0.328802         0.153540
 C         0.225458         0.051494         0.026228
 C        -0.945539        -0.186265        -0.174692
 C        -2.364489        -0.245871        -0.381732
 C        -2.869119         0.996052        -1.060241
 O        -3.055339        -0.160825         1.055191
 C        -3.195288        -1.423852         1.640189
 C        -3.961975        -1.198570         2.895930
 O        -2.628704        -2.399373         1.152428
 H         1.929368         0.521242         1.235847
 H         2.291450        -0.554677        -0.195319
 H         2.079635         1.293343        -0.403101
 H        -2.595316        -1.296297        -0.812442
 H        -2.552244         1.876320        -0.437564
 H        -2.293253         1.326891        -1.949306
 H        -3.980338         0.960039        -1.319957
 H        -3.465655        -0.423246         3.461375
 H        -4.986962        -0.965953         2.613869
 H        -3.966778        -1.991262         3.614296
