19
Iteration:    50charge 0 multiplicity 1
 C         1.809067         0.642724         0.229265
 C         0.463446         0.362225        -0.063150
 C        -0.724908         0.111245        -0.186814
 C        -2.112401        -0.304366        -0.198104
 C        -3.131706         0.626702        -0.967214
 O        -2.611660        -0.342506         1.184961
 C        -3.315572        -1.465919         1.555616
 C        -3.886658        -1.351627         2.931105
 O        -3.493766        -2.379665         0.760718
 H         2.040474         0.026022         1.153296
 H         2.622980         0.387336        -0.490540
 H         1.883349         1.884746         0.481300
 H        -2.148344        -1.345623        -0.587681
 H        -3.409335         1.286860        -0.053313
 H        -2.706660         1.168047        -1.883558
 H        -4.207663         0.256450        -1.111972
 H        -4.759857        -1.986203         3.212516
 H        -2.974139        -1.606933         3.518989
 H        -3.956497        -0.318491         3.325646
