19
Iteration:  4356
 C         1.763467        -0.686099        -0.419747
 C         0.327542        -0.590323        -0.193461
 C        -0.889210        -0.525830        -0.049479
 C        -2.228391        -0.114479        -0.211176
 C        -2.005084         1.235465        -0.934682
 O        -2.879910         0.042243         1.087298
 C        -3.484185        -1.077731         1.720919
 C        -4.042133        -0.510966         3.010868
 O        -3.635145        -2.173107         1.336526
 H         2.229736        -1.145197         0.499027
 H         2.031623        -1.108157        -1.421322
 H         2.004034         0.447566        -0.432053
 H        -2.933340        -0.821463        -0.788104
 H        -2.870150         1.929786        -0.844217
 H        -1.226946         1.770838        -0.514646
 H        -1.869753         1.054118        -1.993077
 H        -4.567437        -1.278732         3.563909
 H        -3.203325        -0.138138         3.590242
 H        -4.768207         0.272173         2.813029
