19
Iteration:  3978charge 0 multiplicity 1
 C         1.710393        -0.754277         0.182128
 C         0.347316        -0.399101        -0.111500
 C        -0.876080        -0.346037        -0.124864
 C        -2.365973        -0.052961        -0.316373
 C        -2.489045         1.171412        -1.128897
 O        -2.855442         0.100017         1.039491
 C        -3.389944        -0.961141         1.645969
 C        -3.559797        -0.925068         3.100034
 O        -3.646568        -2.034533         1.046224
 H         2.021794        -1.587909        -0.563657
 H         2.452359         0.037316        -0.166675
 H         2.055627        -1.114358         1.178075
 H        -2.825839        -0.970923        -0.701521
 H        -3.311912         1.243920        -1.842019
 H        -2.354437         1.939338        -0.447461
 H        -1.685455         1.122885        -1.875372
 H        -2.830401        -1.671657         3.500727
 H        -3.537377         0.095771         3.549806
 H        -4.589024        -1.261550         3.355892
