19
Iteration:  4899charge 0 multiplicity 1
 C         2.010914        -0.810370        -0.429015
 C         0.501722        -0.644965        -0.291745
 C        -0.713866        -0.492675        -0.161609
 C        -2.162902        -0.109872        -0.235479
 C        -2.450741         1.307900        -0.830416
 O        -2.770778        -0.119370         1.176134
 C        -3.607709        -0.990448         1.732108
 C        -3.993146        -0.407516         3.073688
 O        -3.825082        -2.097621         1.229129
 H         2.188527        -0.448481        -1.440289
 H         2.356830         0.002921         0.243155
 H         2.371883        -1.737870        -0.122671
 H        -2.761702        -0.977302        -0.660546
 H        -3.460733         1.414812        -1.171101
 H        -2.376110         1.944540         0.019759
 H        -1.651774         1.486368        -1.624716
 H        -4.546160        -1.034834         3.724718
 H        -3.107265        -0.208036         3.655647
 H        -4.599863         0.453836         2.926480
