19
Iteration:  3684charge 0 multiplicity 1
 C         2.093867         0.182030        -0.269057
 C         0.658145        -0.233120        -0.037338
 C        -0.546833        -0.490619        -0.011113
 C        -1.910480        -0.718437        -0.023094
 C        -2.624961         0.000972        -1.236647
 O        -2.383959        -0.560407         1.389455
 C        -3.732341        -0.806910         1.640855
 C        -3.971337        -0.852290         3.156622
 O        -4.533464        -0.849008         0.805048
 H         2.441717        -0.172863        -1.229660
 H         2.034263         1.335225        -0.232987
 H         2.890864        -0.134641         0.455161
 H        -2.091809        -1.811687        -0.369361
 H        -3.623615        -0.435182        -1.711355
 H        -2.803998         1.066877        -1.146633
 H        -1.784520        -0.115391        -1.892896
 H        -4.970302        -0.448783         3.405331
 H        -3.926342        -1.793831         3.649052
 H        -3.197754        -0.232231         3.647335
