19
Iteration:  3283charge 0 multiplicity 1
 C         1.619031        -0.919985         0.233861
 C         0.221801        -0.612622        -0.048765
 C        -0.939746        -0.373367        -0.283216
 C        -2.353025        -0.101904        -0.552574
 C        -2.547423         1.405966        -1.117075
 O        -3.199002        -0.037230         0.732430
 C        -3.126757        -1.012687         1.826930
 C        -4.410237        -0.721834         2.661389
 O        -2.339498        -1.917911         1.843267
 H         1.815729        -1.977808         0.533711
 H         2.019541        -0.778582        -0.750005
 H         2.144191        -0.439840         1.066592
 H        -2.902155        -0.902706        -1.065886
 H        -3.594015         1.551215        -1.482575
 H        -2.497523         2.045367        -0.345041
 H        -1.936899         1.601561        -1.897043
 H        -4.882060         0.220544         2.373139
 H        -5.086890        -1.564145         2.339463
 H        -4.096627        -0.770079         3.704994
