19
Iteration:  2584charge 0 multiplicity 1
 C         1.899683        -0.135340         0.192161
 C         0.488648        -0.331242         0.021342
 C        -0.705104        -0.358274        -0.190023
 C        -2.137450        -0.295531        -0.260234
 C        -2.792706         0.879055        -1.144572
 O        -2.633871        -0.117964         1.140069
 C        -3.451489        -1.050120         1.579187
 C        -3.992311        -0.791799         3.037305
 O        -3.683605        -2.085247         0.940444
 H         2.581104        -0.290942        -0.638791
 H         2.117660         0.936499         0.554510
 H         2.096583        -0.824293         1.075047
 H        -2.415944        -1.302611        -0.586545
 H        -2.108327         1.663030        -1.360246
 H        -3.021485         0.448908        -2.216698
 H        -3.795280         1.248191        -0.796608
 H        -3.125728        -0.731355         3.687385
 H        -4.333925         0.284461         3.042624
 H        -4.722965        -1.525590         3.444711
