19
Iteration:  4019
 C         1.640708        -0.824808         0.293914
 C         0.145767        -0.639050         0.051134
 C        -1.028185        -0.439313        -0.203089
 C        -2.410800        -0.031344        -0.324491
 C        -2.471132         1.393238        -1.002456
 O        -3.071386         0.123011         0.893190
 C        -3.312973        -1.001655         1.546940
 C        -3.309665        -0.744676         3.015727
 O        -3.375603        -2.188098         1.033954
 H         2.265874        -1.698487        -0.147882
 H         2.087257         0.168812         0.063170
 H         1.766601        -0.787289         1.375640
 H        -3.093260        -0.759322        -0.964443
 H        -3.439843         1.996319        -1.074074
 H        -1.683212         1.929484        -0.440714
 H        -1.963321         1.329688        -1.951514
 H        -2.271531        -0.615647         3.303753
 H        -3.884125         0.180964         3.246150
 H        -3.795013        -1.595587         3.531581
