19
Iteration:  2145charge 0 multiplicity 1
 C         1.638967        -0.430671         0.310757
 C         0.197655        -0.248519        -0.055109
 C        -0.982724        -0.356627        -0.216912
 C        -2.389354        -0.096796        -0.328277
 C        -2.690016         1.116079        -1.195067
 O        -2.874577         0.038321         1.027047
 C        -3.137963        -1.093869         1.692811
 C        -4.093931        -0.940750         2.861366
 O        -2.761254        -2.190571         1.217885
 H         2.134035         0.386038         0.881855
 H         1.681628        -1.310275         1.016244
 H         2.273147        -0.742598        -0.462696
 H        -2.882621        -0.941240        -0.923581
 H        -2.022609         1.962003        -1.041287
 H        -2.546327         0.778110        -2.219687
 H        -3.796214         1.357837        -1.126062
 H        -3.719917        -0.807473         3.850563
 H        -4.807672        -0.112954         2.841124
 H        -4.726458        -1.854541         2.752283
