19
Iteration:  4210charge 0 multiplicity 1
 C         1.183512        -1.618302         0.274064
 C         0.288731        -0.550160        -0.085674
 C        -0.820551        -0.020765        -0.164176
 C        -2.355818         0.177720        -0.428503
 C        -2.864664         1.367241        -1.126645
 O        -3.018620         0.229381         1.014903
 C        -3.134651        -0.943741         1.606230
 C        -3.897100        -0.835782         2.916061
 O        -2.444979        -1.968895         1.265940
 H         0.623550        -2.561486         0.173972
 H         1.922589        -1.527569        -0.581016
 H         1.739084        -1.451594         1.265856
 H        -2.581329        -0.751244        -1.066993
 H        -3.851911         1.459225        -0.845653
 H        -2.260852         2.235997        -0.713983
 H        -2.939894         1.421562        -2.161748
 H        -4.862877        -0.358985         2.758355
 H        -3.914741        -1.747538         3.527168
 H        -3.314451        -0.114620         3.574776
