19
Iteration:  1173charge 0 multiplicity 1
 C         1.607856        -0.159388         0.360739
 C         0.175422        -0.049257         0.134386
 C        -0.994932        -0.128473        -0.207461
 C        -2.407489        -0.039205        -0.343020
 C        -2.988267         1.065689        -1.268339
 O        -2.985217        -0.129910         0.992012
 C        -3.078863        -1.328821         1.608402
 C        -3.778460        -1.036651         2.889210
 O        -2.656479        -2.379508         1.145931
 H         1.980936        -1.147835         0.331648
 H         2.202939         0.489135        -0.370752
 H         1.764547         0.267964         1.460960
 H        -2.707459        -1.010357        -0.882601
 H        -3.451489         1.962143        -0.679868
 H        -2.188732         1.532315        -1.874296
 H        -3.881601         0.653608        -1.872273
 H        -3.156756        -0.606692         3.665610
 H        -4.597810        -0.320251         2.838735
 H        -4.196681        -1.904761         3.406466
