19
Iteration:  1317
 C         1.473067        -0.336940         0.487200
 C         0.172126        -0.323304        -0.140874
 C        -1.024983        -0.165198        -0.260238
 C        -2.456670        -0.053683        -0.464719
 C        -2.909203         1.221031        -1.147548
 O        -3.166871        -0.106958         0.902379
 C        -3.067229        -1.197962         1.662022
 C        -3.921004        -1.207041         2.898415
 O        -2.237572        -2.041365         1.304360
 H         2.306339        -0.277267        -0.126823
 H         1.639864         0.498152         1.204698
 H         1.630448        -1.412016         1.016778
 H        -2.886557        -0.994591        -0.956198
 H        -2.573867         2.238499        -0.740923
 H        -2.486252         1.283395        -2.204369
 H        -4.032588         1.162500        -1.273070
 H        -4.953863        -1.432308         2.623790
 H        -3.570977        -1.985021         3.584653
 H        -3.863302        -0.286457         3.467246
