19
Iteration:  1088
 C         1.751517         0.264932         0.215052
 C         0.351402         0.057117         0.043743
 C        -0.848540        -0.073793        -0.076343
 C        -2.267640        -0.187420        -0.274067
 C        -2.876191         0.869112        -1.163506
 O        -2.826326        -0.180885         1.055055
 C        -3.243123        -1.371051         1.601125
 C        -3.808450        -1.059661         2.977687
 O        -3.305303        -2.457922         0.982392
 H         2.171540        -0.557676         0.953722
 H         2.228031         0.035783        -0.647187
 H         2.197465         1.242659         0.529680
 H        -2.430560        -1.217532        -0.640897
 H        -2.090888         1.669812        -1.194677
 H        -3.070762         0.489701        -2.093031
 H        -3.900547         1.174843        -0.805034
 H        -3.753901        -1.998314         3.537687
 H        -3.215388        -0.234739         3.391499
 H        -4.830762        -0.724825         2.802363
