19
Iteration:  1549
 C         1.984908         0.360824         0.108861
 C         0.581348        -0.006376        -0.107738
 C        -0.621995        -0.206557        -0.290076
 C        -2.138236        -0.364599        -0.339009
 C        -2.766990         0.899169        -0.971246
 O        -2.640949        -0.363553         1.087345
 C        -3.461324        -1.267985         1.651969
 C        -4.012102        -0.940318         2.968178
 O        -3.885129        -2.332949         1.164627
 H         2.113306         1.143077         0.800569
 H         2.598901        -0.438081         0.409667
 H         2.245873         0.788470        -0.959012
 H        -2.457275        -1.331912        -0.853630
 H        -2.196017         1.712146        -0.570250
 H        -2.426656         0.925603        -2.049429
 H        -3.833584         0.810529        -0.841983
 H        -3.519802        -0.110590         3.489720
 H        -5.083767        -0.670251         2.930318
 H        -3.912637        -1.734628         3.680535
