19
Iteration:  4488charge 0 multiplicity 1
 C         2.091887        -0.787838        -0.336078
 C         0.726400        -0.293459        -0.188330
 C        -0.511415        -0.187910        -0.124579
 C        -1.981513        -0.387059        -0.102447
 C        -2.962484         0.481297        -0.837972
 O        -2.400332        -0.294047         1.365857
 C        -3.691925        -0.748637         1.622848
 C        -3.843217        -0.701403         3.139874
 O        -4.361892        -1.250866         0.787562
 H         2.759296        -0.603702         0.540850
 H         2.095762        -1.875107        -0.568086
 H         2.563438        -0.132556        -1.142695
 H        -2.156945        -1.561461        -0.339074
 H        -3.880658        -0.015450        -0.805258
 H        -2.869108         1.383059        -0.339835
 H        -2.740740         0.708789        -1.902937
 H        -2.994647        -1.258573         3.498774
 H        -3.787921         0.335861         3.443485
 H        -4.835192        -1.068317         3.399898
