19
Iteration:  3375
 C         1.797852        -0.870752        -0.056270
 C         0.408249        -0.387142         0.003140
 C        -0.804199        -0.166780         0.001143
 C        -2.246912        -0.211666        -0.190645
 C        -2.608419         0.888091        -1.304122
 O        -2.980081         0.255880         1.033008
 C        -3.385546        -0.961939         1.700546
 C        -4.411959        -0.743401         2.706844
 O        -2.817300        -1.986182         1.494218
 H         1.823763        -1.992056        -0.160137
 H         2.315299        -0.417122        -0.954241
 H         2.229818        -0.980907         0.905412
 H        -2.685594        -1.115960        -0.678864
 H        -3.625626         0.875240        -1.424394
 H        -2.292556         1.915360        -0.997361
 H        -2.142403         0.533152        -2.271695
 H        -5.146351         0.043077         2.542478
 H        -4.933998        -1.627701         2.996988
 H        -3.850841        -0.420458         3.619282
