19
Iteration:   779charge 0 multiplicity 1
 C         1.788997         1.069732        -0.103972
 C         0.551441         0.288706        -0.053232
 C        -0.480741        -0.380028        -0.017292
 C        -1.897766        -0.603741        -0.121990
 C        -2.639584         0.429520        -1.121794
 O        -2.439646        -0.570551         1.347409
 C        -3.540178        -1.286828         1.590259
 C        -3.914859        -1.246395         3.001635
 O        -4.311316        -1.931343         0.835739
 H         1.723196         1.529292        -1.149973
 H         1.784783         1.736408         0.665095
 H         2.673882         0.248050        -0.159348
 H        -2.175618        -1.597903        -0.462846
 H        -2.827329         1.353116        -0.528241
 H        -1.997787         0.827205        -1.967881
 H        -3.656735         0.060051        -1.421704
 H        -3.403064        -1.879948         3.849735
 H        -3.679181        -0.189650         3.442090
 H        -4.939211        -1.660098         3.042756
