19
Iteration:  1940
 C         1.954106         0.172997         0.124719
 C         0.473638         0.019865        -0.212484
 C        -0.672676        -0.323443        -0.065937
 C        -2.174952        -0.425873        -0.148421
 C        -2.649035         0.561207        -1.166139
 O        -2.600940        -0.222586         1.201204
 C        -3.516490        -1.104916         1.595031
 C        -3.980430        -0.831017         3.035752
 O        -3.846686        -2.086671         0.970324
 H         2.521597         0.487318        -0.883495
 H         2.025329         1.028957         0.908581
 H         2.415421        -0.740931         0.507470
 H        -2.524868        -1.371309        -0.521891
 H        -2.483930         1.691975        -1.017471
 H        -2.190053         0.285364        -2.115806
 H        -3.773550         0.627189        -1.379209
 H        -4.537591         0.101822         3.061241
 H        -4.555352        -1.723736         3.416020
 H        -3.047588        -0.609144         3.650879
