19
Iteration:  2640charge 0 multiplicity 1
 C         1.973461        -0.182210         0.224319
 C         0.533417        -0.075865        -0.125910
 C        -0.667881        -0.152837        -0.272604
 C        -2.055290        -0.365812        -0.227857
 C        -2.806926         0.799925        -1.007624
 O        -2.427690        -0.454113         1.181419
 C        -3.517374        -1.111935         1.574312
 C        -4.037225        -0.530668         2.965021
 O        -3.982426        -2.108636         0.990150
 H         2.577000        -0.086579        -0.714708
 H         2.264929         0.546902         0.991172
 H         2.445937        -1.127776         0.524523
 H        -2.258598        -1.268257        -0.802408
 H        -2.856450         1.757343        -0.572240
 H        -2.195868         1.004570        -1.997411
 H        -3.898462         0.520828        -1.323181
 H        -3.398555         0.316622         3.220255
 H        -5.129280        -0.309627         2.868917
 H        -4.153917        -1.267907         3.822351
