19
Iteration:  1708charge 0 multiplicity 1
 C         1.936405         0.532939        -0.320069
 C         0.570868         0.240325        -0.105609
 C        -0.557029        -0.213383         0.186918
 C        -1.944336        -0.654526        -0.018397
 C        -2.410649         0.248648        -1.152992
 O        -2.541568        -0.518330         1.407009
 C        -3.700419        -1.076758         1.631427
 C        -3.969011        -1.136174         3.132900
 O        -4.398490        -1.555019         0.718500
 H         2.663855        -0.191007         0.264259
 H         2.009215         0.376957        -1.489607
 H         2.317775         1.464725        -0.168173
 H        -1.978950        -1.708656        -0.223334
 H        -2.283494         1.325633        -0.904332
 H        -1.774049        -0.068085        -2.150273
 H        -3.437807         0.107950        -1.378825
 H        -4.863505        -1.742849         3.309148
 H        -3.145171        -1.844510         3.284686
 H        -3.700671        -0.165015         3.529425
