19
Iteration:  1697charge 0 multiplicity 1
 C         2.000577         0.506371        -0.320825
 C         0.494325         0.265539        -0.176902
 C        -0.593855        -0.178728         0.240471
 C        -1.920310        -0.632142         0.018589
 C        -2.497790         0.239244        -1.152594
 O        -2.489783        -0.497069         1.433135
 C        -3.727507        -1.122231         1.592058
 C        -3.931188        -1.153152         3.069453
 O        -4.364698        -1.559383         0.700708
 H         2.432614        -0.240650         0.461635
 H         2.455172         0.107668        -1.323760
 H         2.305380         1.463291        -0.136264
 H        -2.069275        -1.633914        -0.327894
 H        -2.317207         1.310657        -0.886283
 H        -1.775163        -0.054876        -2.064282
 H        -3.509060        -0.008146        -1.373904
 H        -4.963567        -1.228429         3.418923
 H        -3.303438        -1.944849         3.528738
 H        -3.596245        -0.291176         3.643885
