19
Iteration:  3098
 C         1.649235        -0.805477         0.373387
 C         0.353892        -0.357805         0.077256
 C        -0.792181        -0.129870        -0.223638
 C        -2.179110        -0.072523        -0.375069
 C        -2.836823         0.953790        -1.341443
 O        -2.881731         0.099099         0.964016
 C        -3.286695        -1.006649         1.650352
 C        -3.980053        -0.704890         2.951825
 O        -3.071828        -2.162097         1.220929
 H         1.678906        -1.075057         1.487358
 H         2.019350        -1.654906        -0.179107
 H         2.314185        -0.005689         0.196742
 H        -2.598606        -1.057967        -0.564692
 H        -4.009299         0.960607        -1.407383
 H        -2.614397         1.998423        -1.084638
 H        -2.327086         0.641266        -2.214485
 H        -3.441700         0.009292         3.551595
 H        -4.813318        -0.055154         2.654951
 H        -4.172813        -1.601464         3.567045
