19
Iteration:  2140charge 0 multiplicity 1
 C         1.623838        -0.435976         0.303429
 C         0.252628        -0.235901        -0.011205
 C        -0.976302        -0.355059        -0.180112
 C        -2.413768        -0.142165        -0.337007
 C        -2.724869         1.116286        -1.187415
 O        -2.858358         0.058041         1.047048
 C        -3.107552        -1.146471         1.683218
 C        -4.096150        -0.882205         2.834951
 O        -2.781389        -2.213329         1.195970
 H         2.071164         0.444874         0.776366
 H         1.692251        -1.215997         1.040113
 H         2.318089        -0.762802        -0.626464
 H        -2.987100        -0.917920        -0.800683
 H        -2.056425         1.998834        -1.065393
 H        -2.609409         0.969015        -2.322787
 H        -3.783172         1.262617        -1.176078
 H        -3.685560        -0.911975         3.896408
 H        -4.766648        -0.001452         2.785165
 H        -4.725064        -1.740556         2.660053
