19
Iteration:  3959
 C         1.847726        -0.733383         0.015390
 C         0.375628        -0.451130         0.012354
 C        -0.784893        -0.225594        -0.218362
 C        -2.218260        -0.095437        -0.266007
 C        -2.571888         1.125275        -1.174494
 O        -2.761039         0.096200         1.134609
 C        -3.413377        -0.985929         1.650830
 C        -3.726396        -0.924976         3.125180
 O        -3.778579        -2.019648         1.015259
 H         2.195868        -1.517934        -0.568471
 H         2.423843         0.175049        -0.113913
 H         1.941190        -1.024129         1.071597
 H        -2.608834        -1.105222        -0.450219
 H        -3.581233         0.960822        -1.557780
 H        -2.597394         2.143651        -0.645986
 H        -1.931749         1.168608        -2.123221
 H        -3.295164        -1.824356         3.603800
 H        -3.331561        -0.036847         3.636985
 H        -4.791638        -0.996495         3.327423
