19
Iteration:  4329charge 0 multiplicity 1
 C         1.752725        -0.751200        -0.335891
 C         0.263928        -0.700513        -0.235608
 C        -0.944937        -0.676249        -0.117213
 C        -2.287688        -0.058091        -0.221611
 C        -2.098576         1.284520        -0.899747
 O        -2.976236         0.115922         1.041792
 C        -3.441117        -0.955025         1.741712
 C        -4.067428        -0.560537         3.033515
 O        -3.327123        -2.128191         1.302898
 H         2.081976        -1.354909         0.497675
 H         2.298499        -0.954611        -1.291725
 H         1.997688         0.253905        -0.066078
 H        -3.020112        -0.624330        -0.794344
 H        -3.055054         1.703603        -1.235020
 H        -1.510090         2.040076        -0.181977
 H        -1.490013         1.191114        -1.831733
 H        -4.811293        -1.329382         3.326326
 H        -3.263082        -0.492486         3.807872
 H        -4.603642         0.420549         2.998446
