19
Iteration:  4048
 C         1.424178        -0.890856         0.394791
 C        -0.013846        -0.772539         0.160952
 C        -1.078030        -0.452902        -0.249369
 C        -2.300757         0.074117        -0.533386
 C        -2.478577         1.574753        -0.992978
 O        -3.117139         0.032972         0.789973
 C        -3.172741        -1.087763         1.523249
 C        -3.261862        -0.697382         3.110421
 O        -3.177723        -2.171921         1.098007
 H         1.927144        -1.699772        -0.032084
 H         1.805182        -0.003345        -0.069791
 H         1.761927        -0.814216         1.426365
 H        -2.861380        -0.449859        -1.254702
 H        -3.418528         2.025072        -0.647724
 H        -1.554837         2.071288        -0.538283
 H        -2.505899         1.658042        -2.082174
 H        -2.454301        -0.016724         3.367376
 H        -4.228957        -0.249935         3.259069
 H        -3.282764        -1.616665         3.706290
