19
Iteration:  1897
 C         2.051408         0.300355         0.099346
 C         0.581704         0.069812         0.009561
 C        -0.579115        -0.201046        -0.244435
 C        -2.038918        -0.520232        -0.264836
 C        -2.861074         0.475653        -1.000505
 O        -2.458521        -0.455627         1.133072
 C        -3.540944        -1.117337         1.628861
 C        -3.959632        -0.681750         2.930478
 O        -4.140085        -2.029998         1.007948
 H         2.439841         0.062521        -0.927358
 H         2.342941         1.354293         0.425440
 H         2.614145        -0.476209         0.629237
 H        -2.139215        -1.567994        -0.489095
 H        -2.928888         1.454647        -0.386938
 H        -2.349185         0.674504        -1.952240
 H        -3.922509         0.087376        -1.202822
 H        -3.850275         0.354377         3.225723
 H        -5.009321        -1.077159         3.069228
 H        -3.564378        -1.347364         3.767692
