19
Iteration:  1313charge 0 multiplicity 1
 C         1.497971        -0.343407         0.485585
 C         0.157099        -0.296412        -0.092621
 C        -1.031358        -0.212924        -0.284816
 C        -2.463146        -0.092253        -0.441209
 C        -2.917477         1.244486        -1.142974
 O        -3.185601        -0.086387         0.878381
 C        -3.041981        -1.217236         1.634171
 C        -3.918727        -1.204086         2.898610
 O        -2.233787        -2.020780         1.316768
 H         2.398805        -0.392273        -0.187111
 H         1.701735         0.526267         1.274094
 H         1.581477        -1.308325         0.982863
 H        -2.913865        -0.917382        -1.001601
 H        -2.595420         2.224674        -0.767794
 H        -2.577554         1.180782        -2.121957
 H        -4.035337         1.245298        -1.203006
 H        -5.016829        -1.347794         2.702683
 H        -3.503075        -2.142328         3.421749
 H        -3.787417        -0.227414         3.411852
