19
Iteration:  3071charge 0 multiplicity 1
 C         1.806599        -0.700740         0.297742
 C         0.355652        -0.338571         0.154872
 C        -0.828646        -0.173773        -0.047933
 C        -2.216172        -0.154798        -0.261994
 C        -2.845349         0.775104        -1.305098
 O        -2.850261         0.108519         1.031618
 C        -3.301445        -1.012032         1.566628
 C        -3.857254        -0.684023         2.903157
 O        -3.319477        -2.041425         1.018861
 H         2.043517        -0.709464         1.356551
 H         2.032609        -1.692116        -0.186285
 H         2.555973         0.229308         0.061105
 H        -2.655038        -1.202552        -0.420704
 H        -3.912319         0.785730        -1.237377
 H        -2.407004         1.821625        -1.239328
 H        -2.502432         0.366120        -2.330480
 H        -3.043631        -0.089669         3.461664
 H        -4.664608         0.100381         2.845203
 H        -4.186289        -1.543977         3.511367
