19
Iteration:  3890
 C         2.070209        -0.566724        -0.209330
 C         0.643715        -0.203732        -0.179784
 C        -0.578477        -0.207079        -0.205455
 C        -2.042884        -0.312685        -0.065534
 C        -2.807273         0.734068        -0.808106
 O        -2.441277        -0.277479         1.344489
 C        -3.591807        -1.003953         1.635083
 C        -4.156328        -0.624104         3.002246
 O        -4.006940        -1.750170         0.794038
 H         2.329700        -1.363378        -0.986807
 H         2.657277         0.384233        -0.258497
 H         2.158504        -0.984577         0.786460
 H        -2.369920        -1.278118        -0.522815
 H        -3.918856         0.820780        -0.429449
 H        -2.341638         1.672313        -0.586192
 H        -2.820517         0.634736        -1.907398
 H        -4.826488        -1.437790         3.350243
 H        -3.381721        -0.388329         3.761408
 H        -4.854828         0.262692         2.864555
