19
Iteration:  4971
 C         1.698073        -1.020394        -0.163187
 C         0.314403        -0.640219        -0.225872
 C        -0.868973        -0.506809        -0.275237
 C        -2.212016        -0.042381        -0.188883
 C        -2.616506         1.269436        -0.836353
 O        -2.743748         0.143054         1.203307
 C        -3.315639        -0.955271         1.665826
 C        -3.926095        -0.586703         2.952912
 O        -3.341518        -2.000373         1.143075
 H         2.036351        -1.340093        -1.177235
 H         2.250169        -0.124761         0.188880
 H         1.731460        -1.851774         0.656855
 H        -2.984916        -0.676144        -0.558019
 H        -3.708129         1.288315        -1.104044
 H        -2.315001         2.176504        -0.253108
 H        -2.047429         1.206310        -1.798708
 H        -4.989356        -0.651663         2.685128
 H        -3.775774        -1.358690         3.773816
 H        -3.799165         0.503425         3.217432
