19
Iteration:  3049charge 0 multiplicity 1
 C         1.917590        -0.534576         0.283778
 C         0.442034        -0.387333         0.162916
 C        -0.747840        -0.192954        -0.041873
 C        -2.146666        -0.168016        -0.297709
 C        -2.757805         0.749714        -1.357584
 O        -2.850668         0.129325         0.978104
 C        -3.413006        -1.013240         1.542404
 C        -3.824879        -0.705973         3.069182
 O        -3.615918        -2.088961         1.020620
 H         2.330999        -0.557089         1.287212
 H         2.102616        -1.537748        -0.195212
 H         2.517565         0.295225        -0.356902
 H        -2.603496        -1.189862        -0.409862
 H        -3.769148         0.652045        -1.063811
 H        -2.521857         1.843027        -1.170790
 H        -2.607007         0.428369        -2.449468
 H        -2.961030        -0.332481         3.718975
 H        -4.588801         0.122081         3.157110
 H        -4.169714        -1.668264         3.485581
