19
Iteration:   401charge 0 multiplicity 1
 C         1.554668        -0.093308         0.249741
 C         0.166877         0.032405         0.115644
 C        -0.983943         0.226070        -0.198381
 C        -2.435432         0.000551        -0.374396
 C        -3.093043         1.110955        -1.217189
 O        -3.082055        -0.248439         0.921662
 C        -2.988508        -1.393719         1.655385
 C        -3.960875        -1.322678         2.757716
 O        -2.296317        -2.355673         1.426943
 H         1.988221         0.723352         0.730532
 H         1.920591        -1.017345         0.793551
 H         2.177282        -0.167642        -0.746142
 H        -2.496883        -0.993954        -0.753512
 H        -3.210889         2.158367        -0.820758
 H        -2.633512         1.082153        -2.209691
 H        -4.218318         0.946658        -1.285587
 H        -3.470548        -1.408856         3.695410
 H        -4.629613        -0.483312         2.725877
 H        -4.555117        -2.237782         2.759238
