19
Iteration:  4780
 C         2.007905        -0.643309        -0.501144
 C         0.620260        -0.528012        -0.358306
 C        -0.518270        -0.395759         0.068845
 C        -2.039173        -0.379671        -0.008327
 C        -2.670621         0.666828        -0.921324
 O        -2.542905        -0.080226         1.396111
 C        -3.676807        -0.797453         1.648043
 C        -3.914555        -0.700182         3.181034
 O        -4.227988        -1.423660         0.824491
 H         2.542554         0.188460        -1.041354
 H         2.484260        -0.843789         0.512076
 H         2.037444        -1.638506        -1.014917
 H        -2.291686        -1.412592        -0.324128
 H        -3.699874         0.521480        -0.926562
 H        -2.512915         1.609518        -0.490533
 H        -2.284758         0.623445        -1.966472
 H        -3.172854        -1.295325         3.739079
 H        -3.655632         0.331662         3.534215
 H        -4.929317        -1.005261         3.465851
