19
Iteration:  2273
 C         1.593190        -0.769370         0.248472
 C         0.240427        -0.289094         0.118528
 C        -0.984075        -0.122430         0.030207
 C        -2.407094        -0.021622        -0.462296
 C        -2.673988         1.431702        -1.085416
 O        -3.411210        -0.237934         0.526886
 C        -3.163369        -1.153204         1.509462
 C        -3.843144        -0.816000         2.875066
 O        -2.479382        -2.170216         1.559795
 H         1.858977        -0.954261         1.224838
 H         1.591019        -1.769242        -0.212075
 H         2.498425        -0.118304        -0.231063
 H        -2.557199        -0.818120        -1.151388
 H        -2.838415         2.003365        -0.208550
 H        -1.862409         1.784017        -1.810161
 H        -3.760908         1.374562        -1.495588
 H        -4.008443         0.168822         3.286858
 H        -4.780196        -1.394070         3.041286
 H        -3.123294        -1.207390         3.676920
