19
Iteration:  4254
 C         1.460303        -1.373069         0.012897
 C         0.181607        -0.614952        -0.068187
 C        -0.945034        -0.139175        -0.181125
 C        -2.316451         0.089256        -0.365871
 C        -2.580989         1.461391        -1.108470
 O        -3.000429         0.237018         1.047609
 C        -3.197880        -1.016625         1.684609
 C        -4.002588        -0.739475         2.919350
 O        -2.721007        -2.134522         1.376800
 H         1.386812        -2.429094         0.242112
 H         1.990431        -1.316680        -0.977115
 H         2.084787        -0.695674         0.696456
 H        -2.869219        -0.832522        -0.834826
 H        -3.587640         1.653938        -1.109682
 H        -1.788238         2.203093        -0.861178
 H        -2.447409         1.378292        -2.144782
 H        -5.078029        -0.866356         2.763266
 H        -3.615804        -1.364930         3.751461
 H        -3.801107         0.295478         3.295731
