19
Iteration:  1114
 C         1.775305         0.148573         0.332777
 C         0.371086         0.011293        -0.090798
 C        -0.837786        -0.202541        -0.171182
 C        -2.289497        -0.176776        -0.331043
 C        -2.925887         0.880834        -1.152930
 O        -2.998876        -0.047846         1.051499
 C        -3.282774        -1.289487         1.613672
 C        -3.825743        -1.152057         3.007223
 O        -3.052402        -2.348103         1.008986
 H         2.075629        -0.690815         0.977699
 H         2.628779         0.305263        -0.451496
 H         1.909387         0.965858         0.955649
 H        -2.564320        -1.167041        -0.630458
 H        -2.490261         1.799059        -0.904182
 H        -3.045790         0.669700        -2.266402
 H        -3.924456         0.865156        -0.828536
 H        -3.214972        -1.906139         3.607385
 H        -3.543107        -0.094894         3.247983
 H        -4.917095        -1.392088         3.142708
