19
Iteration:  2854
 C         2.126788         0.220672        -0.291901
 C         0.763496        -0.041205        -0.093917
 C        -0.413866        -0.373969         0.036924
 C        -1.897641        -0.771410         0.022679
 C        -2.614520         0.257527        -1.037035
 O        -2.399004        -0.727222         1.362749
 C        -3.676876        -0.881365         1.610067
 C        -4.233812        -0.781847         3.063907
 O        -4.508370        -1.145848         0.736852
 H         2.475533         1.273328        -0.163054
 H         2.538330        -0.545104         0.312087
 H         2.329163         0.034351        -1.299856
 H        -2.094838        -1.772761        -0.392522
 H        -3.604733        -0.069407        -1.102913
 H        -2.509363         1.236186        -0.500958
 H        -2.171031         0.299220        -2.071739
 H        -4.617314        -1.772719         3.307101
 H        -3.525357        -0.543202         3.869761
 H        -5.054133        -0.038080         3.044161
