19
Iteration:  3859
 C         2.098034        -0.344540        -0.359302
 C         0.658877        -0.220571        -0.287731
 C        -0.526495        -0.282137        -0.130273
 C        -1.951662        -0.351135        -0.040297
 C        -2.658997         0.663332        -0.781396
 O        -2.306994        -0.524033         1.472775
 C        -3.626229        -0.999216         1.669003
 C        -4.285028        -0.558694         2.894685
 O        -4.269811        -1.616264         0.855276
 H         2.503994        -0.979682        -1.085890
 H         2.518153         0.652905        -0.302499
 H         2.197579        -0.735228         0.625128
 H        -2.214130        -1.397713        -0.349678
 H        -3.782269         0.340474        -0.753554
 H        -2.556529         1.685266        -0.429836
 H        -2.484013         0.737065        -1.907926
 H        -5.225620        -1.111952         2.923534
 H        -3.790729        -0.679754         3.866210
 H        -4.535602         0.511959         2.913640
