19
Iteration:  2795
 C         2.062835         0.176040        -0.436120
 C         0.745981        -0.152576        -0.008857
 C        -0.421434        -0.385543         0.313960
 C        -1.905955        -0.708325         0.057051
 C        -2.472275         0.278496        -1.016776
 O        -2.532674        -0.387245         1.296765
 C        -3.794085        -0.892749         1.570277
 C        -4.024666        -0.897114         3.003313
 O        -4.573999        -1.319037         0.681783
 H         2.208931         1.342143        -0.569163
 H         2.926562         0.041480         0.247565
 H         2.326024        -0.488181        -1.282584
 H        -2.103451        -1.776665        -0.021631
 H        -3.316423        -0.280860        -1.585027
 H        -3.084673         1.008824        -0.528946
 H        -1.728374         0.703125        -1.659527
 H        -5.003597        -1.220265         3.463606
 H        -3.165296        -1.481708         3.417289
 H        -3.760431         0.110883         3.390947
