19
Iteration:  3378
 C         1.795009        -0.865460        -0.056882
 C         0.404522        -0.395735        -0.000012
 C        -0.810229        -0.171833         0.019691
 C        -2.227971        -0.185066        -0.190081
 C        -2.601685         0.859659        -1.319742
 O        -2.964263         0.231931         1.018946
 C        -3.370704        -0.947250         1.709813
 C        -4.419574        -0.738445         2.742102
 O        -2.848564        -1.984233         1.476270
 H         1.826290        -1.905593        -0.233918
 H         2.274816        -0.384042        -0.888031
 H         2.335451        -0.930054         0.905787
 H        -2.705313        -1.037274        -0.649893
 H        -3.716148         0.941891        -1.467606
 H        -2.305057         1.931588        -0.995602
 H        -2.089224         0.540818        -2.257701
 H        -5.173371         0.005791         2.559695
 H        -4.914964        -1.693001         2.966860
 H        -3.837745        -0.420994         3.618651
