19
Iteration:   777
 C         1.787518         1.054324        -0.108211
 C         0.550189         0.303611        -0.057760
 C        -0.483819        -0.365547        -0.007685
 C        -1.895625        -0.596660        -0.143094
 C        -2.632676         0.422922        -1.112372
 O        -2.429075        -0.565158         1.328431
 C        -3.567250        -1.298654         1.590982
 C        -3.904248        -1.241655         3.024177
 O        -4.308237        -1.939617         0.833445
 H         1.785117         1.468078        -1.051499
 H         1.823290         1.795688         0.678562
 H         2.657975         0.247401        -0.125931
 H        -2.187342        -1.652064        -0.465136
 H        -2.859492         1.393438        -0.513428
 H        -2.027796         0.766943        -1.934244
 H        -3.683647         0.073649        -1.386366
 H        -3.459231        -1.885426         3.783842
 H        -3.683547        -0.244866         3.435674
 H        -4.921515        -1.578454         3.077830
