19
Iteration:  3924charge 0 multiplicity 1
 C         2.008772        -0.669446        -0.117407
 C         0.565301        -0.469086        -0.036669
 C        -0.648268        -0.167924        -0.056422
 C        -2.153635        -0.153502        -0.116039
 C        -2.878627         0.925420        -0.989097
 O        -2.604314        -0.057996         1.194327
 C        -3.485096        -0.962451         1.609475
 C        -3.875727        -0.757937         3.000451
 O        -3.917409        -1.916811         0.868206
 H         2.525988        -1.363925        -0.806581
 H         2.610179         0.273702        -0.192698
 H         2.345306        -0.959953         0.876935
 H        -2.521914        -1.079454        -0.579239
 H        -4.008015         0.895121        -0.720926
 H        -2.515760         1.883190        -0.580727
 H        -2.635607         0.828113        -2.111010
 H        -3.954824        -1.776989         3.431583
 H        -3.121423        -0.119535         3.522436
 H        -4.872800        -0.253814         2.946464
