19
Iteration:  3350charge 0 multiplicity 1
 C         1.729859        -0.966348         0.031941
 C         0.411739        -0.389792        -0.097175
 C        -0.795422        -0.211969        -0.088691
 C        -2.213738        -0.073044        -0.192217
 C        -2.703717         1.001061        -1.203312
 O        -3.066548         0.100484         0.936938
 C        -3.278699        -0.964426         1.767618
 C        -4.469733        -0.666713         2.612500
 O        -2.621853        -2.001880         1.606412
 H         1.761046        -2.130997        -0.006117
 H         2.230873        -0.604969        -0.869539
 H         2.236121        -0.870855         1.000414
 H        -2.562286        -0.934075        -0.789648
 H        -3.839207         1.077378        -1.181769
 H        -2.287776         1.893298        -0.918814
 H        -2.346105         0.771741        -2.166564
 H        -5.115859         0.163394         2.248823
 H        -5.099451        -1.592730         2.716665
 H        -4.196212        -0.416729         3.645236
