19
Iteration:  2767charge 0 multiplicity 1
 C         2.077919         0.127998        -0.338992
 C         0.684880        -0.084051        -0.051390
 C        -0.476315        -0.499873         0.078352
 C        -1.983329        -0.563310        -0.010865
 C        -2.449785         0.293486        -1.057006
 O        -2.506707        -0.290368         1.399060
 C        -3.755539        -0.921188         1.607673
 C        -4.143828        -0.926482         3.083197
 O        -4.392807        -1.404082         0.727542
 H         2.198593         1.125584        -0.770088
 H         2.822520         0.156064         0.522145
 H         2.488786        -0.584484        -1.133072
 H        -2.308744        -1.634891        -0.056737
 H        -3.281622        -0.228580        -1.551977
 H        -2.576889         1.394568        -0.824126
 H        -1.719196         0.360730        -1.908120
 H        -5.192590        -0.808846         3.231275
 H        -3.995383        -1.971853         3.421957
 H        -3.607560        -0.136829         3.639278
