19
Iteration:  3161charge 0 multiplicity 1
 C         1.536031        -0.875116         0.438012
 C         0.209113        -0.528126         0.015929
 C        -0.950556        -0.352953        -0.251953
 C        -2.417152        -0.066041        -0.448111
 C        -2.670413         1.274464        -1.072390
 O        -3.189782        -0.027071         0.745949
 C        -3.107170        -1.044752         1.596374
 C        -4.052796        -0.577169         2.729973
 O        -2.469895        -2.106625         1.547446
 H         1.595325        -1.416077         1.388935
 H         2.002153        -1.457457        -0.348424
 H         2.126354         0.098884         0.649329
 H        -2.671697        -0.934156        -1.106145
 H        -3.711972         1.452866        -1.513701
 H        -2.378748         2.083817        -0.439235
 H        -2.021475         1.314661        -1.928568
 H        -3.698302         0.424288         3.074058
 H        -5.023498        -0.460422         2.180231
 H        -4.305310        -1.273496         3.578675
