19
Iteration:  3194charge 0 multiplicity 1
 C         1.454551        -0.849122         0.375211
 C         0.070243        -0.630157         0.135618
 C        -1.055426        -0.484260        -0.196664
 C        -2.344609        -0.065668        -0.538224
 C        -2.458294         1.341267        -1.094627
 O        -3.314943        -0.082159         0.573488
 C        -3.159700        -0.973956         1.588914
 C        -4.068260        -0.739110         2.847372
 O        -2.286656        -1.889525         1.621116
 H         1.687712        -1.601384         1.156853
 H         1.963836        -1.151581        -0.538155
 H         1.919540         0.180952         0.612610
 H        -2.794928        -0.625233        -1.395796
 H        -3.463442         1.799499        -1.069567
 H        -1.981120         2.033330        -0.465439
 H        -2.009954         1.217042        -2.022136
 H        -4.149879         0.264656         3.326035
 H        -5.131163        -0.672666         2.515592
 H        -3.756156        -1.427030         3.675298
