19
Iteration:    42
 C         1.872976         0.724814         0.229575
 C         0.488729         0.283495        -0.086915
 C        -0.716328         0.148641        -0.204293
 C        -2.137689        -0.296444        -0.221690
 C        -3.139140         0.631156        -0.957990
 O        -2.584800        -0.408633         1.189613
 C        -3.353925        -1.465372         1.555561
 C        -3.911593        -1.368627         3.041447
 O        -3.526932        -2.325349         0.740038
 H         2.154920         0.293881         1.292184
 H         2.570962         0.407675        -0.526554
 H         1.881087         1.759407         0.311186
 H        -2.081041        -1.285737        -0.713761
 H        -3.349601         1.437763        -0.207909
 H        -2.704563         1.080837        -1.762239
 H        -3.938927        -0.020829        -1.273195
 H        -4.789033        -2.054997         3.152880
 H        -3.088399        -1.798003         3.641659
 H        -4.192002        -0.317366         3.249579
