19
Iteration:  1537charge 0 multiplicity 1
 C         1.862534         0.373848         0.064159
 C         0.520293        -0.167940        -0.066488
 C        -0.662494        -0.140507        -0.232752
 C        -2.058262        -0.319630        -0.308684
 C        -2.704156         0.912877        -1.022539
 O        -2.647837        -0.325904         1.086256
 C        -3.530243        -1.302521         1.601897
 C        -3.985439        -0.864293         3.068895
 O        -3.775747        -2.402244         1.112429
 H         1.873372         1.146995         0.695262
 H         2.524200        -0.396108         0.456022
 H         2.449862         0.663849        -0.926481
 H        -2.331451        -1.334795        -0.794231
 H        -2.439114         1.771671        -0.496383
 H        -2.570187         1.040235        -2.155158
 H        -3.739670         1.001889        -0.887757
 H        -3.316630        -0.113079         3.531147
 H        -5.038198        -0.541285         2.955166
 H        -4.040586        -1.853302         3.509186
