19
Iteration:  3843
 C         2.155190        -0.185768        -0.379924
 C         0.685006        -0.300067        -0.336853
 C        -0.466273        -0.325217        -0.006225
 C        -1.916338        -0.554300         0.043345
 C        -2.699354         0.634742        -0.713526
 O        -2.398540        -0.540991         1.395627
 C        -3.667634        -0.955223         1.626439
 C        -4.271774        -0.487152         2.972158
 O        -4.328065        -1.588955         0.776252
 H         2.433428        -0.783114        -1.368833
 H         2.432839         0.871969        -0.599638
 H         2.720926        -0.653687         0.496347
 H        -2.244116        -1.385357        -0.555543
 H        -3.717081         0.419539        -0.891758
 H        -2.537973         1.569528        -0.135784
 H        -2.164698         0.780077        -1.625193
 H        -5.322739        -0.812087         3.039409
 H        -3.649042        -0.828140         3.813654
 H        -4.257471         0.633895         2.936975
