19
Iteration:  4276charge 0 multiplicity 1
 C         1.594349        -1.113082        -0.067200
 C         0.176432        -0.829300        -0.098973
 C        -0.954689        -0.396134        -0.146314
 C        -2.335729         0.087655        -0.265197
 C        -2.532971         1.452835        -0.999170
 O        -2.970168         0.130921         0.985064
 C        -3.212958        -0.970383         1.713392
 C        -4.040984        -0.637039         2.945450
 O        -2.854885        -2.045250         1.308073
 H         1.853911        -2.112303         0.224403
 H         1.927771        -1.130891        -1.139243
 H         2.271477        -0.315509         0.377199
 H        -3.055377        -0.614608        -0.821437
 H        -3.529195         1.593971        -1.285153
 H        -1.930392         2.269440        -0.573431
 H        -1.993281         1.288627        -1.888527
 H        -4.999228        -1.143557         2.754496
 H        -3.576516        -1.113489         3.834476
 H        -4.175703         0.438416         3.172828
