19
Iteration:   744charge 0 multiplicity 1
 C         1.900323         0.896636        -0.019977
 C         0.554264         0.402953        -0.081070
 C        -0.587317        -0.032032        -0.038428
 C        -1.952406        -0.644501        -0.132493
 C        -2.738518         0.336998        -0.995561
 O        -2.534932        -0.587208         1.250173
 C        -3.654118        -1.297162         1.569777
 C        -3.747657        -1.167451         3.029609
 O        -4.221756        -2.052040         0.754986
 H         2.264323         1.063869        -0.974533
 H         2.128409         1.829365         0.446608
 H         2.666141         0.138754         0.461564
 H        -1.969589        -1.749398        -0.301700
 H        -2.467555         1.364194        -0.523381
 H        -2.481805         0.325421        -2.025333
 H        -3.874612         0.246547        -0.932064
 H        -3.649398        -2.159897         3.454178
 H        -3.172495        -0.368360         3.443712
 H        -4.744503        -0.758571         3.200260
