19
Iteration:  3569
 C         1.862688        -0.036337         0.310435
 C         0.478484        -0.356234        -0.009591
 C        -0.666576        -0.495306        -0.431235
 C        -2.098639        -0.603875        -0.263973
 C        -2.820703         0.343347        -1.199730
 O        -2.329734        -0.280325         1.152817
 C        -3.512306        -0.895344         1.624782
 C        -3.636963        -0.561413         3.151369
 O        -4.265608        -1.444353         0.896938
 H         2.501444        -0.616989        -0.353481
 H         2.135396         0.964446         0.359954
 H         1.975155        -0.456379         1.307506
 H        -2.172896        -1.694542        -0.273961
 H        -3.904245         0.290804        -0.934593
 H        -2.564759         1.421996        -0.937406
 H        -2.614595         0.123603        -2.297726
 H        -4.527054         0.082646         3.203521
 H        -3.928212        -1.521687         3.638284
 H        -2.753555        -0.064378         3.614365
