19
Iteration:  2489
 C         1.833061        -0.389119         0.110132
 C         0.372097        -0.269960         0.074638
 C        -0.832786        -0.152401         0.083233
 C        -2.248320        -0.162038        -0.272494
 C        -2.568045         1.061113        -1.150975
 O        -3.160249        -0.026218         0.884935
 C        -3.337290        -1.230413         1.614033
 C        -3.703970        -0.727054         2.985533
 O        -3.432258        -2.344493         1.121836
 H         2.350128        -1.370645        -0.306370
 H         2.373119         0.381011        -0.375438
 H         2.081872        -0.345799         1.158547
 H        -2.412293        -0.993733        -1.044631
 H        -2.721406         1.974270        -0.660082
 H        -1.677861         1.385673        -1.717499
 H        -3.331179         0.898332        -1.966750
 H        -4.155929        -1.508757         3.578263
 H        -2.753838        -0.359880         3.406944
 H        -4.563714        -0.038042         2.813258
