19
Iteration:  4699
 C         2.120302        -0.500787        -0.240321
 C         0.671426        -0.356960        -0.376104
 C        -0.531747        -0.433770        -0.270841
 C        -2.002102        -0.473073        -0.130084
 C        -2.754881         0.618972        -0.850944
 O        -2.381390        -0.709723         1.345031
 C        -3.666118        -0.856777         1.676512
 C        -3.750378        -0.558714         3.128377
 O        -4.619525        -1.025415         0.962963
 H         2.557408         0.573432        -0.204161
 H         2.211002        -0.971850         0.766381
 H         2.691266        -1.048622        -1.050616
 H        -2.267581        -1.458545        -0.739526
 H        -3.818500         0.208543        -0.863437
 H        -2.658703         1.660070        -0.365394
 H        -2.402567         0.625797        -1.893468
 H        -2.767236        -0.634140         3.633041
 H        -4.185945         0.426021         3.249328
 H        -4.500537        -1.210086         3.620138
