19
Iteration:  2527charge 0 multiplicity 1
 C         1.934950        -0.271423         0.073729
 C         0.398249        -0.237982         0.072547
 C        -0.835215        -0.337758         0.061957
 C        -2.223960        -0.205928        -0.377223
 C        -2.512553         0.913810        -1.256537
 O        -3.027877         0.053804         1.006890
 C        -3.506207        -1.036308         1.579837
 C        -3.800546        -0.939774         3.114782
 O        -3.499021        -2.164124         1.058666
 H         2.414114        -0.994093        -0.528413
 H         2.410757         0.779805        -0.068572
 H         2.135787        -0.545706         1.224996
 H        -2.649671        -1.157471        -0.671997
 H        -2.267858         1.942425        -0.754754
 H        -1.990394         0.691978        -2.204846
 H        -3.572276         0.877381        -1.460557
 H        -3.396953        -1.858481         3.596338
 H        -3.342513        -0.053962         3.548645
 H        -4.878236        -0.867411         3.357706
