19
Iteration:  4940charge 0 multiplicity 1
 C         1.779222        -0.908943        -0.232497
 C         0.364877        -0.622984        -0.412718
 C        -0.804940        -0.410251        -0.324955
 C        -2.208763        -0.088715        -0.287763
 C        -2.438526         1.308485        -0.909459
 O        -2.641900        -0.030723         1.235223
 C        -3.436643        -0.935662         1.785847
 C        -4.124272        -0.554592         3.112522
 O        -3.565713        -2.084871         1.250120
 H         2.380777        -0.993308        -1.138479
 H         2.347689        -0.124523         0.326159
 H         1.928434        -1.759305         0.478296
 H        -2.874442        -0.791521        -0.808304
 H        -3.365606         1.467418        -1.534695
 H        -2.489494         2.155937        -0.161320
 H        -1.437431         1.468812        -1.487975
 H        -5.083223        -1.015948         3.001451
 H        -3.488567        -0.896015         3.969751
 H        -4.265500         0.546038         3.142451
