19
Iteration:  2181
 C         1.738298        -0.506306         0.378138
 C         0.259579        -0.478095        -0.164038
 C        -0.958158        -0.280820        -0.288641
 C        -2.377766        -0.044762        -0.477503
 C        -2.629543         1.225490        -1.177338
 O        -3.223794         0.041596         0.938001
 C        -3.260020        -1.065432         1.639397
 C        -4.056603        -1.037931         2.980958
 O        -2.621903        -2.100404         1.378344
 H         1.871142         0.303048         1.228960
 H         1.796054        -1.510685         0.822398
 H         2.478710        -0.350873        -0.344896
 H        -2.851061        -0.938157        -0.876835
 H        -1.921355         2.077367        -0.768116
 H        -2.343341         1.053378        -2.223115
 H        -3.670513         1.499663        -1.141175
 H        -3.429058        -0.485687         3.725004
 H        -5.091816        -0.719016         2.800637
 H        -3.983771        -2.068411         3.340504
