19
Iteration:  1998
 C         1.954059         0.007574         0.036679
 C         0.504764        -0.190260         0.192089
 C        -0.676651        -0.293510         0.034613
 C        -2.187494        -0.258918        -0.292758
 C        -2.746135         0.766628        -1.329085
 O        -2.895014         0.005882         1.076703
 C        -3.491716        -1.128129         1.575441
 C        -3.885737        -0.902881         3.004907
 O        -3.588099        -2.230561         1.083821
 H         1.992566         0.637360        -0.804890
 H         2.493065         0.512805         0.806220
 H         2.536018        -0.972124        -0.338150
 H        -2.475142        -1.326874        -0.385246
 H        -2.226085         1.778613        -1.035298
 H        -2.548028         0.535707        -2.374726
 H        -3.803576         0.769896        -1.153742
 H        -4.997872        -1.038072         3.235515
 H        -3.416384        -1.687549         3.612673
 H        -3.581896         0.039280         3.531239
