19
Iteration:  2719
 C         2.078335         0.050359        -0.130162
 C         0.705057        -0.260561        -0.158169
 C        -0.493600        -0.301553        -0.013096
 C        -1.966600        -0.464206         0.034803
 C        -2.742329         0.460834        -1.022006
 O        -2.496284        -0.299971         1.322960
 C        -3.594758        -1.006011         1.571889
 C        -4.136440        -0.773759         2.983865
 O        -4.241347        -1.691130         0.757416
 H         2.466195         0.944158        -0.722500
 H         2.367927         0.277638         0.844577
 H         2.656713        -0.747340        -0.404154
 H        -2.273181        -1.489478        -0.203186
 H        -3.731812         0.690641        -0.528462
 H        -2.151907         1.306347        -1.293151
 H        -3.038337        -0.042776        -1.944261
 H        -4.697600         0.213628         3.084363
 H        -4.834444        -1.525799         3.378036
 H        -3.261959        -0.565619         3.615482
