19
Iteration:  2925
 C         1.979951         0.236766         0.032353
 C         0.656830        -0.406118        -0.075804
 C        -0.549850        -0.587585        -0.111368
 C        -1.973248        -0.621096        -0.150739
 C        -2.654648         0.592988        -1.044442
 O        -2.391957        -0.535020         1.272972
 C        -3.667513        -0.885682         1.616286
 C        -3.960280        -0.699291         3.036675
 O        -4.370607        -1.478800         0.775146
 H         2.000156         1.086104         0.544419
 H         2.773382        -0.491513         0.313720
 H         2.191569         0.721665        -0.986578
 H        -2.185820        -1.631545        -0.550847
 H        -3.724625         0.627238        -0.628197
 H        -2.047017         1.446306        -0.849273
 H        -2.709902         0.331459        -2.071066
 H        -3.549696        -1.437627         3.723608
 H        -3.584652         0.285030         3.336797
 H        -5.046504        -0.619972         3.079155
