19
Iteration:  1826charge 0 multiplicity 1
 C         1.980677         0.518319        -0.052816
 C         0.583221         0.226639        -0.090803
 C        -0.522504        -0.335049        -0.230697
 C        -1.895074        -0.730911        -0.144831
 C        -2.856011         0.326545        -0.955399
 O        -2.305014        -0.656283         1.330518
 C        -3.548777        -1.074019         1.586702
 C        -4.097102        -0.753989         3.015471
 O        -4.252631        -1.681708         0.815785
 H         2.509395        -0.423862        -0.545006
 H         2.460079         1.417515        -0.370083
 H         2.289422         0.243830         0.996494
 H        -2.162073        -1.747648        -0.553463
 H        -2.682372         1.288851        -0.409541
 H        -2.583822         0.356842        -2.027961
 H        -3.806908        -0.036696        -0.719760
 H        -3.416229        -0.858673         3.875465
 H        -4.631639         0.164334         3.145204
 H        -4.885645        -1.466310         3.051158
