19
Iteration:  1710charge 0 multiplicity 1
 C         1.925304         0.522224        -0.325140
 C         0.590265         0.237838        -0.081754
 C        -0.545771        -0.224337         0.169468
 C        -1.941235        -0.651729        -0.016125
 C        -2.407162         0.252396        -1.144109
 O        -2.540040        -0.516799         1.388601
 C        -3.721040        -1.075075         1.618395
 C        -3.968075        -1.140807         3.138869
 O        -4.399365        -1.551164         0.733692
 H         2.642216        -0.122494         0.164637
 H         1.978021         0.413472        -1.498172
 H         2.267835         1.555751        -0.129951
 H        -1.964400        -1.730085        -0.146817
 H        -2.231779         1.275486        -0.983671
 H        -1.795344        -0.003180        -2.130708
 H        -3.426058         0.104522        -1.399410
 H        -4.868841        -1.796619         3.295457
 H        -3.114048        -1.843034         3.350425
 H        -3.767710        -0.139168         3.537582
