19
Iteration:  4482charge 0 multiplicity 1
 C         2.076696        -0.791687        -0.317539
 C         0.714657        -0.301204        -0.251776
 C        -0.498290        -0.181295        -0.145853
 C        -1.910469        -0.444779        -0.129649
 C        -2.941452         0.511939        -0.830655
 O        -2.414613        -0.257166         1.395891
 C        -3.645420        -0.733646         1.700083
 C        -3.908383        -0.678451         3.103243
 O        -4.338391        -1.309281         0.765006
 H         2.689154        -0.679539         0.617357
 H         1.881630        -1.849920        -0.597368
 H         2.443109        -0.149631        -1.094180
 H        -2.251678        -1.381881        -0.326907
 H        -3.926388        -0.056030        -0.784976
 H        -3.093484         1.553650        -0.243720
 H        -2.744097         0.826229        -1.848442
 H        -3.063256        -1.304380         3.505750
 H        -3.767502         0.329358         3.577888
 H        -4.870809        -1.103651         3.402752
