19
Iteration:  1985charge 0 multiplicity 1
 C         2.010835         0.120532        -0.006040
 C         0.542725        -0.351460         0.172924
 C        -0.653391        -0.228239        -0.016956
 C        -2.176689        -0.295420        -0.208685
 C        -2.764518         0.707729        -1.293854
 O        -2.896295        -0.031340         1.047384
 C        -3.523553        -1.135315         1.617251
 C        -3.912465        -0.913474         3.091787
 O        -3.636761        -2.159432         1.030291
 H         2.180159         0.809559        -0.889677
 H         2.338096         0.647920         0.929620
 H         2.705205        -0.810431         0.005297
 H        -2.461391        -1.218287        -0.625652
 H        -2.229134         1.779330        -1.193247
 H        -2.557567         0.335450        -2.252014
 H        -3.831503         0.987913        -1.176378
 H        -5.000434        -0.770946         3.133521
 H        -3.691578        -1.901199         3.506381
 H        -3.304313        -0.002754         3.367606
