19
Iteration:  2143
 C         1.633287        -0.426797         0.312512
 C         0.218141        -0.242773        -0.038248
 C        -0.982503        -0.356649        -0.201429
 C        -2.400056        -0.113947        -0.328855
 C        -2.698347         1.120968        -1.187730
 O        -2.866249         0.044758         1.034618
 C        -3.126518        -1.112155         1.692263
 C        -4.093764        -0.917929         2.851385
 O        -2.767819        -2.201545         1.206858
 H         2.086364         0.350128         0.819773
 H         1.686626        -1.264499         1.020789
 H         2.323872        -0.771126        -0.554814
 H        -2.931145        -0.931762        -0.906094
 H        -2.064204         1.919392        -1.076790
 H        -2.574585         0.859165        -2.292289
 H        -3.811389         1.307391        -1.157045
 H        -3.724655        -0.830710         3.867940
 H        -4.805146        -0.078241         2.843740
 H        -4.717374        -1.795102         2.697022
