19
Iteration:   880
 C         2.072830         0.963528        -0.243151
 C         0.582385         0.468974        -0.056484
 C        -0.565196        -0.026314        -0.044329
 C        -1.875758        -0.711133        -0.096925
 C        -2.708518         0.295883        -0.901934
 O        -2.384670        -0.794212         1.366458
 C        -3.613119        -1.297951         1.622611
 C        -4.157089        -1.153929         3.052383
 O        -4.253262        -1.831870         0.696077
 H         1.961137         2.158985        -0.237743
 H         2.696226         0.533926         0.488861
 H         2.359351         0.575950        -1.242926
 H        -1.796559        -1.708319        -0.417488
 H        -2.232714         1.241749        -0.840001
 H        -2.765216         0.003153        -2.011115
 H        -3.754600         0.206818        -0.740780
 H        -4.074598        -0.190770         3.661474
 H        -5.268501        -1.504235         3.016482
 H        -3.845505        -2.114045         3.658087
