19
Iteration:   837charge 0 multiplicity 1
 C         1.761892         1.078424        -0.196422
 C         0.580436         0.213133        -0.141621
 C        -0.492173        -0.351417         0.107127
 C        -1.938323        -0.678837         0.031577
 C        -2.706922         0.273591        -0.844762
 O        -2.392327        -0.604809         1.375400
 C        -3.554564        -1.226314         1.508871
 C        -3.928213        -1.201378         2.946687
 O        -4.231589        -1.767912         0.623016
 H         1.415527         2.137951        -0.618738
 H         2.289640         1.264230         0.763665
 H         2.507073         0.699333        -0.839422
 H        -2.138774        -1.610111        -0.418166
 H        -2.621962         1.229668        -0.396247
 H        -2.283602         0.226535        -1.860513
 H        -3.712267        -0.076596        -0.961000
 H        -3.062761        -0.677471         3.418661
 H        -4.908865        -0.663207         2.966599
 H        -4.267780        -2.202788         3.353002
