19
Iteration:  2012charge 0 multiplicity 1
 C         1.864279        -0.080010         0.017923
 C         0.393769        -0.051474         0.163412
 C        -0.763906        -0.269021         0.031705
 C        -2.156824        -0.268050        -0.243894
 C        -2.653950         0.774077        -1.222078
 O        -2.870138        -0.027355         1.001679
 C        -3.412492        -1.122056         1.628463
 C        -3.887674        -0.884251         3.013269
 O        -3.533773        -2.245831         1.077704
 H         2.249118         0.560988        -0.764736
 H         2.311209         0.141089         0.986682
 H         2.197693        -1.116611        -0.260115
 H        -2.498729        -1.221241        -0.800241
 H        -2.475358         1.788527        -1.125198
 H        -2.258135         0.472353        -2.283524
 H        -3.760539         0.716098        -1.274096
 H        -4.946144        -1.219427         2.963515
 H        -3.186772        -1.448946         3.700533
 H        -3.869609         0.169929         3.249791
