19
Iteration:  3761
 C         1.917296         0.328703        -0.612577
 C         0.632498        -0.329548        -0.139423
 C        -0.490231        -0.705872         0.121672
 C        -1.877238        -0.772166         0.082663
 C        -2.155366         0.327154        -0.920097
 O        -2.411765        -0.715107         1.495582
 C        -3.795401        -0.850702         1.564341
 C        -4.211488        -0.590418         3.102332
 O        -4.515349        -1.118642         0.692890
 H         2.242669         0.004427        -1.549117
 H         1.867521         1.442050        -0.487218
 H         2.595896         0.062985         0.201148
 H        -2.393273        -1.698360        -0.392054
 H        -3.322784         0.673688        -0.888062
 H        -1.737210         1.285689        -0.699502
 H        -1.806073         0.049790        -1.948004
 H        -5.286933        -0.590781         3.272699
 H        -3.897030        -1.381504         3.765523
 H        -3.784034         0.266114         3.648307
