19
Iteration:  2188charge 0 multiplicity 1
 C         1.674510        -0.529846         0.367674
 C         0.293504        -0.483880        -0.131612
 C        -0.921597        -0.306015        -0.223079
 C        -2.381620        -0.026103        -0.462599
 C        -2.653958         1.269703        -1.162103
 O        -3.242824        -0.007398         0.850815
 C        -3.217606        -1.074467         1.698607
 C        -4.018330        -1.044997         2.985066
 O        -2.617051        -2.069502         1.365456
 H         1.791122         0.207867         1.144770
 H         1.963251        -1.540811         0.773204
 H         2.362560        -0.289120        -0.457551
 H        -2.916571        -0.914349        -0.948925
 H        -2.012210         2.036311        -0.798712
 H        -2.351145         1.235603        -2.189068
 H        -3.737617         1.490703        -1.295112
 H        -3.631227        -0.245910         3.590050
 H        -5.013052        -0.684691         2.724102
 H        -4.079521        -2.055476         3.452539
