19
Iteration:  1541charge 0 multiplicity 1
 C         1.895230         0.370273         0.070229
 C         0.547819        -0.123844        -0.078044
 C        -0.649201        -0.152909        -0.257642
 C        -2.066562        -0.348199        -0.320848
 C        -2.717327         0.892965        -1.026950
 O        -2.642813        -0.336179         1.086157
 C        -3.520214        -1.318241         1.607475
 C        -3.995624        -0.888413         3.035441
 O        -3.811987        -2.367916         1.143107
 H         1.981347         1.304460         0.813611
 H         2.541322        -0.446568         0.362722
 H         2.387222         0.651239        -0.840154
 H        -2.380183        -1.249778        -0.806566
 H        -2.387266         1.824919        -0.421871
 H        -2.581997         1.038274        -2.070916
 H        -3.851041         1.085051        -0.849460
 H        -3.476532        -0.103829         3.576226
 H        -5.030027        -0.528719         2.985258
 H        -3.954037        -1.853411         3.544185
