19
Iteration:  1432charge 0 multiplicity 1
 C         1.784892        -0.223126         0.100378
 C         0.339755        -0.127420        -0.046247
 C        -0.854721         0.087379         0.072232
 C        -2.318968        -0.019934        -0.214699
 C        -2.818379         1.039559        -1.319762
 O        -3.104668        -0.135962         1.020377
 C        -3.256984        -1.315912         1.645280
 C        -3.949972        -1.024987         2.991896
 O        -2.909509        -2.418622         1.151629
 H         2.187246         0.922950        -0.016982
 H         1.900689        -0.359525         1.197643
 H         2.382518        -0.858312        -0.451619
 H        -2.395928        -0.962161        -0.720122
 H        -2.441294         2.090815        -1.204177
 H        -2.371436         0.658551        -2.269719
 H        -3.961729         0.930166        -1.404678
 H        -3.489874        -1.743451         3.711636
 H        -3.777654         0.084055         3.128031
 H        -5.003628        -1.223180         2.855605
