19
Iteration:  2574charge 0 multiplicity 1
 C         1.847813        -0.151594         0.230532
 C         0.419105        -0.348573         0.034980
 C        -0.757636        -0.313448        -0.154610
 C        -2.168435        -0.285724        -0.241699
 C        -2.719158         0.882310        -1.281002
 O        -2.606863        -0.054630         1.184167
 C        -3.467758        -1.096071         1.575064
 C        -3.963031        -0.815836         3.035875
 O        -3.634217        -2.093690         0.933806
 H         2.271394        -0.453929        -0.817622
 H         2.087494         0.942206         0.309590
 H         2.480729        -0.715931         0.977863
 H        -2.636373        -1.262210        -0.399371
 H        -2.030299         1.652341        -1.213552
 H        -2.922535         0.354769        -2.314103
 H        -3.649914         1.319606        -0.787432
 H        -3.105679        -1.052609         3.675726
 H        -4.219160         0.279756         3.205755
 H        -4.806112        -1.484605         3.403203
