19
Iteration:   656
 C         1.908994         0.512655         0.185115
 C         0.465777         0.369236        -0.164059
 C        -0.717395         0.049115        -0.164176
 C        -2.125333        -0.381917        -0.109831
 C        -3.121966         0.340542        -1.022835
 O        -2.514873        -0.243939         1.307612
 C        -3.349718        -1.347020         1.523680
 C        -3.838687        -1.186958         2.977006
 O        -3.667203        -2.205607         0.719065
 H         2.488134        -0.306845        -0.155144
 H         2.168905         1.519878        -0.182938
 H         1.876852         0.529962         1.412095
 H        -2.212315        -1.433728        -0.385212
 H        -3.504015         1.235616        -0.409185
 H        -2.662407         0.598851        -1.962713
 H        -4.074416        -0.195925        -1.127999
 H        -4.874404        -1.394656         2.986798
 H        -3.311832        -1.818176         3.687902
 H        -3.728216        -0.148529         3.318670
