19
Iteration:  4979charge 0 multiplicity 1
 C         1.662533        -1.008595        -0.153505
 C         0.311111        -0.721892        -0.146110
 C        -0.865894        -0.438174        -0.242097
 C        -2.271736         0.001349        -0.223992
 C        -2.622700         1.274651        -0.838166
 O        -2.774792         0.173034         1.151637
 C        -3.237426        -0.912848         1.722613
 C        -3.898896        -0.614497         2.935301
 O        -3.315341        -2.020298         1.115671
 H         1.938493        -1.560920        -1.068599
 H         2.308839        -0.198057         0.132948
 H         1.790979        -1.924724         0.506815
 H        -2.797729        -0.881103        -0.732153
 H        -3.708367         1.194291        -0.887255
 H        -2.180476         2.178415        -0.455002
 H        -2.401057         1.200820        -1.834690
 H        -4.968039        -0.685114         2.598895
 H        -3.907419        -1.398477         3.690647
 H        -3.644371         0.343884         3.446990
