19
Iteration:  2902charge 0 multiplicity 1
 C         2.044606         0.221729        -0.042489
 C         0.631517        -0.213896        -0.223448
 C        -0.537535        -0.524490        -0.096593
 C        -1.998948        -0.700585        -0.048824
 C        -2.634725         0.387073        -0.859484
 O        -2.334737        -0.589188         1.366350
 C        -3.676387        -0.907095         1.547706
 C        -4.050137        -0.703990         3.010164
 O        -4.396762        -1.300571         0.656890
 H         1.968751         1.104516         0.403560
 H         2.595353        -0.590911         0.497984
 H         2.497782         0.683907        -0.968052
 H        -2.163758        -1.704370        -0.461781
 H        -3.716337         0.482788        -0.493268
 H        -1.951642         1.187317        -0.836361
 H        -2.712843        -0.097981        -1.821576
 H        -3.803068        -1.556394         3.655410
 H        -3.397651         0.063633         3.412482
 H        -5.063037        -0.375742         3.108049
