19
Iteration:  1656
 C         2.174949         0.431059        -0.215270
 C         0.721710         0.155965        -0.063135
 C        -0.476932        -0.058024        -0.067732
 C        -1.950016        -0.583759        -0.043823
 C        -2.932689         0.228303        -0.979038
 O        -2.454903        -0.389490         1.368004
 C        -3.676198        -1.052826         1.549645
 C        -4.063864        -1.170846         3.049739
 O        -4.265447        -1.700027         0.758813
 H         2.631692         0.281436         0.703266
 H         2.739134        -0.082643        -1.072369
 H         2.305893         1.555534        -0.411527
 H        -1.917567        -1.702688        -0.221444
 H        -3.011904         1.135725        -0.476650
 H        -2.509460         0.158080        -2.040680
 H        -3.909814        -0.131634        -1.005291
 H        -4.937270        -0.451495         3.108894
 H        -4.311262        -2.252242         3.264167
 H        -3.224153        -0.803170         3.678950
