19
Iteration:  1939
 C         1.954121         0.168673         0.131103
 C         0.471962         0.032977        -0.212136
 C        -0.666707        -0.329335        -0.078613
 C        -2.168569        -0.423183        -0.149295
 C        -2.651536         0.559728        -1.161320
 O        -2.598108        -0.234313         1.200798
 C        -3.514605        -1.098532         1.602843
 C        -3.984222        -0.824184         3.047261
 O        -3.852112        -2.088259         0.965208
 H         2.502941         0.488639        -0.910302
 H         2.063970         1.044611         0.902398
 H         2.396523        -0.708410         0.504830
 H        -2.528323        -1.352742        -0.559397
 H        -2.502115         1.642653        -0.997134
 H        -2.162124         0.287456        -2.140805
 H        -3.771600         0.613097        -1.384007
 H        -4.535321         0.099465         3.075815
 H        -4.590252        -1.704244         3.386332
 H        -3.057978        -0.628086         3.629835
