19
Iteration:  2383charge 0 multiplicity 1
 C         1.535431        -0.558072         0.474578
 C         0.231786        -0.496616        -0.162024
 C        -0.951557        -0.262589        -0.285172
 C        -2.412702        -0.036171        -0.298509
 C        -2.747404         1.142566        -1.202353
 O        -2.913923         0.139960         1.099222
 C        -3.015752        -1.068685         1.629560
 C        -4.040380        -0.991844         2.856605
 O        -2.774635        -2.149588         1.140166
 H         1.530147        -1.338300         1.099064
 H         2.334630        -0.584653        -0.263022
 H         1.676199         0.415240         1.076830
 H        -2.859952        -0.905235        -0.692156
 H        -1.987911         1.951095        -1.066001
 H        -2.570872         0.704017        -2.175028
 H        -3.722964         1.686958        -1.138240
 H        -5.018293        -0.776082         2.471105
 H        -4.058158        -1.852033         3.514115
 H        -3.575549        -0.225379         3.507931
