19
Iteration:  3109charge 0 multiplicity 1
 C         1.685585        -0.831274         0.415589
 C         0.338405        -0.393966         0.030969
 C        -0.811880        -0.109409        -0.306028
 C        -2.283017        -0.025958        -0.380651
 C        -2.765464         1.030640        -1.337233
 O        -2.942870         0.074006         0.923132
 C        -3.185537        -1.034916         1.655582
 C        -4.016822        -0.695207         2.910304
 O        -3.026571        -2.154209         1.368101
 H         1.581810        -1.181348         1.507625
 H         1.988213        -1.701698        -0.151285
 H         2.443447        -0.090486         0.382443
 H        -2.442144        -1.025496        -0.854356
 H        -3.902458         0.669651        -1.358503
 H        -2.597465         2.061091        -0.984745
 H        -2.509040         1.027591        -2.373338
 H        -3.403794        -0.062658         3.524073
 H        -5.053550        -0.341961         2.716613
 H        -4.211008        -1.676926         3.390932
