19
Iteration:  3679
 C         2.068871         0.157979        -0.203465
 C         0.638829        -0.193414        -0.058521
 C        -0.535721        -0.458284         0.005305
 C        -1.914471        -0.736209        -0.048821
 C        -2.629058         0.019195        -1.279063
 O        -2.386593        -0.565957         1.368059
 C        -3.711899        -0.812378         1.668862
 C        -3.948768        -0.842466         3.164789
 O        -4.562935        -0.861384         0.801898
 H         2.436918        -0.250249        -1.185615
 H         2.191017         1.201301        -0.307707
 H         2.886398        -0.239783         0.383659
 H        -1.908495        -1.843803        -0.208284
 H        -3.433771        -0.511785        -1.679720
 H        -2.877219         1.152420        -1.135953
 H        -1.903480        -0.067410        -2.185464
 H        -4.890666        -0.408249         3.532835
 H        -3.902645        -1.827116         3.746717
 H        -3.140451        -0.292443         3.659281
