19
Iteration:  3994
 C         1.643064        -0.763012         0.176211
 C         0.260495        -0.439314        -0.079769
 C        -0.950397        -0.443306        -0.107599
 C        -2.264980        -0.134075        -0.326659
 C        -2.431402         1.274161        -1.146115
 O        -2.978112         0.166271         1.010594
 C        -3.355656        -1.066416         1.612571
 C        -3.470339        -0.848249         3.176279
 O        -3.552010        -2.072274         0.978306
 H         1.975945        -1.655804        -0.267200
 H         2.346736         0.027855         0.096890
 H         1.568658        -0.933492         1.251658
 H        -2.905987        -0.749616        -1.022370
 H        -3.501587         1.328867        -1.429051
 H        -2.218777         2.178575        -0.401859
 H        -1.683115         1.433722        -1.952464
 H        -2.546104        -1.226537         3.611275
 H        -3.514643         0.209348         3.394206
 H        -4.322002        -1.409062         3.547338
