19
Iteration:  1840charge 0 multiplicity 1
 C         2.049599         0.432913         0.024372
 C         0.617179         0.127301        -0.106661
 C        -0.569929        -0.192088        -0.216930
 C        -1.954453        -0.637451        -0.163273
 C        -2.871859         0.280887        -0.843986
 O        -2.302828        -0.635560         1.307668
 C        -3.580328        -1.115070         1.591557
 C        -4.017803        -0.717349         2.929553
 O        -4.301497        -1.769431         0.809511
 H         2.621492        -0.143966        -0.785982
 H         2.149014         1.545843        -0.251395
 H         2.427008         0.348938         0.966970
 H        -2.006868        -1.672699        -0.462496
 H        -2.761321         1.283937        -0.531210
 H        -2.673502         0.294979        -1.992029
 H        -3.961160         0.067280        -0.818636
 H        -3.147193        -0.422562         3.532889
 H        -4.611406         0.185947         2.739546
 H        -4.538263        -1.505183         3.470409
