19
Iteration:  1236
 C         1.612014        -0.382239         0.379063
 C         0.188377        -0.163522         0.105486
 C        -1.023300        -0.007179        -0.044003
 C        -2.477711         0.029845        -0.433839
 C        -2.948513         1.258277        -1.230055
 O        -3.440704        -0.293041         0.681043
 C        -3.050434        -1.299763         1.541253
 C        -3.696432        -1.060208         2.928541
 O        -2.330287        -2.233662         1.404444
 H         2.148008        -1.161440        -0.138600
 H         2.200994         0.646324         0.335236
 H         1.703966        -0.650206         1.430197
 H        -2.601476        -0.885333        -1.043467
 H        -2.722440         2.109947        -0.625067
 H        -2.398320         1.313936        -2.199472
 H        -4.018360         1.320487        -1.371550
 H        -3.743579         0.024130         3.183144
 H        -4.680869        -1.602304         2.845285
 H        -2.886722        -1.537404         3.576318
