19
Iteration:   322charge 0 multiplicity 1
 C         1.478761        -0.116688         0.380714
 C         0.121849        -0.127774         0.055302
 C        -1.064790         0.080245        -0.047851
 C        -2.537521         0.040176        -0.433188
 C        -3.057052         1.139536        -1.248533
 O        -3.277560        -0.206951         0.806657
 C        -2.933300        -1.278631         1.621325
 C        -3.845153        -1.499304         2.863448
 O        -2.088122        -2.116923         1.367829
 H         2.202810         0.646765        -0.080455
 H         1.836087        -0.192507         1.413163
 H         1.848671        -1.073592        -0.136385
 H        -2.593108        -0.948438        -0.925496
 H        -2.930022         2.146675        -0.723871
 H        -2.487639         1.174867        -2.190733
 H        -4.032827         0.934317        -1.704316
 H        -3.472810        -2.402424         3.389007
 H        -3.632994        -0.738135         3.659988
 H        -4.913123        -1.548710         2.536505
