19
Iteration:   629charge 0 multiplicity 1
 C         1.907569         0.508422         0.191914
 C         0.509377         0.300215        -0.056233
 C        -0.713952         0.143511        -0.161423
 C        -2.115660        -0.293055        -0.235922
 C        -3.085890         0.532168        -1.060702
 O        -2.681899        -0.324374         1.117255
 C        -3.346895        -1.340418         1.604421
 C        -3.842593        -1.192293         2.984584
 O        -3.587438        -2.345468         0.929381
 H         2.474594        -0.490843         0.030466
 H         2.317461         1.251372        -0.535167
 H         1.976147         0.823445         1.140132
 H        -2.201217        -1.291097        -0.763324
 H        -3.430623         1.398073        -0.552012
 H        -2.737863         0.668124        -2.121470
 H        -4.012623        -0.073110        -1.180809
 H        -4.958731        -1.056828         3.106476
 H        -3.707298        -2.170776         3.550432
 H        -3.244288        -0.584423         3.693371
