19
Iteration:  4525charge 0 multiplicity 1
 C         2.036213        -0.545825        -0.310757
 C         0.597782        -0.446869        -0.094176
 C        -0.585825        -0.304081        -0.079349
 C        -2.001566        -0.412038        -0.190462
 C        -2.671176         0.538025        -1.152371
 O        -2.396989        -0.456746         1.314564
 C        -3.657960        -0.797281         1.695580
 C        -3.741171        -0.795825         3.198609
 O        -4.569322        -1.086510         0.955534
 H         2.579064         0.053645         0.533084
 H         2.540596        -1.586235        -0.435362
 H         2.261177         0.002910        -1.255570
 H        -2.086060        -1.460650        -0.559056
 H        -3.772643         0.637082        -0.970458
 H        -2.336339         1.590306        -0.776377
 H        -2.421660         0.385845        -2.166231
 H        -2.808493        -1.117360         3.715147
 H        -3.718050         0.299932         3.453799
 H        -4.615040        -1.264277         3.660035
