19
Iteration:  3368
 C         1.774022        -0.926293        -0.063327
 C         0.413183        -0.376532         0.005059
 C        -0.780922        -0.188148        -0.051030
 C        -2.288499        -0.188055        -0.232867
 C        -2.610794         0.919494        -1.239693
 O        -3.038955         0.259879         1.057805
 C        -3.388826        -0.952532         1.653889
 C        -4.419918        -0.724832         2.660662
 O        -2.724745        -2.017385         1.542602
 H         1.638257        -1.963551        -0.228818
 H         2.507132        -0.557614        -0.760433
 H         2.214203        -0.678960         0.980328
 H        -2.475454        -1.261977        -0.397210
 H        -3.777367         0.803915        -1.348011
 H        -2.170184         1.960520        -0.992292
 H        -2.252915         0.639056        -2.242545
 H        -5.009607         0.139149         2.363018
 H        -4.994576        -1.615645         2.985347
 H        -3.917061        -0.419312         3.581044
