19
Iteration:  4991
 C         1.710360        -1.114011        -0.132771
 C         0.247948        -0.770309        -0.077531
 C        -0.897898        -0.304236        -0.174218
 C        -2.282147        -0.018341        -0.257489
 C        -2.686454         1.317992        -0.964377
 O        -2.760704         0.214090         1.083221
 C        -3.192749        -0.971938         1.685268
 C        -3.948184        -0.667157         3.029955
 O        -3.258256        -2.026302         1.120402
 H         1.954886        -1.411379        -1.164599
 H         2.335166        -0.216759         0.000204
 H         2.044088        -1.827291         0.692343
 H        -2.895956        -0.871050        -0.672381
 H        -3.639331         1.653013        -0.560447
 H        -2.024009         2.075443        -0.514693
 H        -2.633966         1.328972        -1.983324
 H        -4.987192        -0.375050         2.790684
 H        -3.849616        -1.594136         3.635068
 H        -3.500172         0.237733         3.533683
