19
Iteration:  1081charge 0 multiplicity 1
 C         1.765612         0.265086         0.183484
 C         0.327451         0.078297         0.110161
 C        -0.847525        -0.020866        -0.110801
 C        -2.232414        -0.198139        -0.290834
 C        -2.838715         0.856220        -1.154607
 O        -2.804086        -0.178643         1.072751
 C        -3.264267        -1.418630         1.580960
 C        -3.817284        -1.070025         2.950193
 O        -3.360239        -2.459294         1.026241
 H         2.179051        -0.428437         0.946067
 H         2.247594        -0.022980        -0.838216
 H         1.984798         1.247140         0.423479
 H        -2.399829        -1.196659        -0.620651
 H        -2.201432         1.705259        -1.256754
 H        -3.001484         0.479317        -2.196621
 H        -3.725818         1.144737        -0.645882
 H        -3.787940        -2.045971         3.536031
 H        -3.102102        -0.340288         3.411567
 H        -4.773388        -0.589297         2.755155
