19
Iteration:  2146
 C         1.640141        -0.433627         0.311612
 C         0.191516        -0.251594        -0.062631
 C        -0.983780        -0.356277        -0.225214
 C        -2.384059        -0.089717        -0.329575
 C        -2.687900         1.113238        -1.198953
 O        -2.879723         0.036304         1.023460
 C        -3.143109        -1.087376         1.691365
 C        -4.095398        -0.952652         2.865193
 O        -2.758757        -2.183822         1.224647
 H         2.153185         0.409270         0.908927
 H         1.677004        -1.326355         1.010254
 H         2.255198        -0.728543        -0.435068
 H        -2.855311        -0.940167        -0.912628
 H        -1.999778         1.993528        -1.017366
 H        -2.530441         0.737729        -2.185396
 H        -3.773085         1.384886        -1.108599
 H        -3.702886        -0.804233         3.854050
 H        -4.806728        -0.123788         2.827333
 H        -4.725862        -1.880913         2.788617
