19
Iteration:  4636charge 0 multiplicity 1
 C         1.825511        -0.093865        -0.180934
 C         0.469175        -0.649019        -0.065316
 C        -0.682838        -0.924781        -0.475153
 C        -2.056197        -0.596664        -0.215025
 C        -2.547035         0.756797        -0.901454
 O        -2.213879        -0.668038         1.235493
 C        -3.526664        -0.838790         1.739749
 C        -3.708300        -0.624575         3.179831
 O        -4.524447        -0.877990         0.948582
 H         1.679622         0.911189         0.288033
 H         2.561505        -0.507009         0.575921
 H         2.343802        -0.357770        -1.074811
 H        -2.846646        -1.258612        -0.509347
 H        -3.631162         1.041897        -0.766338
 H        -1.925372         1.646840        -0.720962
 H        -2.300058         0.588331        -1.879184
 H        -2.809939        -0.856693         3.750746
 H        -4.254742         0.311904         3.265505
 H        -4.398609        -1.468219         3.460658
