19
Iteration:  2073charge 0 multiplicity 1
 C         1.916198        -0.350424         0.211889
 C         0.464478        -0.221891        -0.094059
 C        -0.728813        -0.066843        -0.090711
 C        -2.246108        -0.121172        -0.365993
 C        -2.850973         1.040728        -1.224279
 O        -2.989121        -0.051188         0.940759
 C        -3.358180        -1.188572         1.646231
 C        -3.976718        -0.843431         2.951822
 O        -3.251195        -2.358215         1.302887
 H         2.426920         0.635089         0.120828
 H         2.084015        -0.579992         1.270269
 H         2.468981        -1.157199        -0.324705
 H        -2.384560        -1.046266        -0.839377
 H        -2.952363         2.012418        -0.598365
 H        -2.233399         1.147282        -2.080965
 H        -3.752817         0.597808        -1.564358
 H        -4.067877        -1.744577         3.567057
 H        -3.520004        -0.255860         3.712897
 H        -4.956847        -0.381362         2.739028
