19
Iteration:   465charge 0 multiplicity 1
 C         1.675427         0.241350         0.189565
 C         0.258776         0.158509        -0.040555
 C        -0.896511        -0.218420        -0.172528
 C        -2.337888        -0.241528        -0.306475
 C        -2.953560         1.025326        -1.039241
 O        -3.080446        -0.207838         0.940052
 C        -3.152418        -1.391053         1.582243
 C        -4.017206        -1.193286         2.932342
 O        -2.563934        -2.367911         1.187407
 H         1.808724         0.517471         1.315809
 H         2.179357        -0.755431         0.036635
 H         2.157119         1.046226        -0.444001
 H        -2.701506        -1.213711        -0.852008
 H        -2.723467         1.828388        -0.261046
 H        -2.727290         1.235012        -2.068688
 H        -4.075680         0.956767        -0.842845
 H        -3.499149        -0.391334         3.483938
 H        -5.020398        -0.743024         2.759035
 H        -4.079981        -2.191477         3.403610
