19
Iteration:  2367charge 0 multiplicity 1
 C         1.512922        -0.556751         0.442538
 C         0.132915        -0.490038         0.018892
 C        -1.001377        -0.307227        -0.387807
 C        -2.412184        -0.062296        -0.369290
 C        -2.730999         1.203599        -1.264432
 O        -2.831526         0.153155         1.070445
 C        -3.087607        -1.088476         1.734600
 C        -4.028074        -1.043938         2.877126
 O        -2.662260        -2.073058         1.165038
 H         1.720570        -1.438510         1.281854
 H         2.227023        -0.864160        -0.350751
 H         1.869286         0.329489         0.890807
 H        -3.054776        -1.005243        -0.637306
 H        -2.123410         2.087664        -0.984507
 H        -2.640452         1.073496        -2.395053
 H        -3.773371         1.499588        -1.055377
 H        -4.934064        -0.598632         2.356635
 H        -4.211708        -2.121752         3.059739
 H        -3.875555        -0.432168         3.766512
