19
Iteration:  4115charge 0 multiplicity 1
 C         1.138152        -1.358969         0.625679
 C         0.106533        -0.568307        -0.123296
 C        -1.103583        -0.311085        -0.377088
 C        -2.513649         0.117403        -0.577721
 C        -2.640692         1.551844        -1.022543
 O        -3.141069         0.132922         0.875213
 C        -2.989119        -0.986416         1.639611
 C        -3.418852        -0.753170         3.094288
 O        -2.598864        -2.061096         1.065143
 H         1.119580        -2.397820         0.434104
 H         2.065305        -0.885607         0.391153
 H         1.070645        -1.159467         1.686265
 H        -3.027037        -0.650904        -1.075483
 H        -3.610253         1.847564        -1.556027
 H        -2.214658         2.116414        -0.165743
 H        -1.941878         1.703653        -1.842994
 H        -3.502360         0.286722         3.298891
 H        -4.343543        -1.334078         3.163068
 H        -2.807181        -1.299450         3.813727
