19
Iteration:  1867
 C         2.043050         0.409504         0.055795
 C         0.648682        -0.087064        -0.139770
 C        -0.556049        -0.095594        -0.021111
 C        -1.970921        -0.466263        -0.241423
 C        -2.953080         0.363210        -0.931097
 O        -2.386515        -0.614533         1.265956
 C        -3.650745        -1.225927         1.565564
 C        -3.886581        -0.575439         2.932924
 O        -4.223858        -1.936599         0.824421
 H         2.517645         0.078317        -0.768849
 H         2.070080         1.448214         0.126140
 H         2.568127        -0.015344         1.064966
 H        -1.894621        -1.532203        -0.573638
 H        -3.148585         1.442460        -0.565619
 H        -2.844283         0.446665        -1.932922
 H        -3.973252         0.044398        -0.913543
 H        -3.112255         0.165956         3.177224
 H        -4.905820        -0.096034         2.910244
 H        -3.706477        -1.387537         3.695027
