19
Iteration:   502charge 0 multiplicity 1
 C         1.592224         0.448901         0.104638
 C         0.231153        -0.084517         0.068754
 C        -0.951508        -0.190789        -0.096234
 C        -2.370315        -0.149827        -0.269713
 C        -2.753632         1.030031        -1.202115
 O        -2.998277        -0.158046         1.004539
 C        -3.105603        -1.410994         1.654550
 C        -3.879700        -1.250034         2.928633
 O        -2.872896        -2.470881         1.189714
 H         1.957920         0.445471         1.050134
 H         2.341344        -0.086761        -0.533370
 H         1.601972         1.628064        -0.234367
 H        -2.620404        -1.086145        -0.689764
 H        -2.647236         1.961619        -0.739628
 H        -1.962110         1.211880        -1.995127
 H        -3.698223         0.843505        -1.674293
 H        -3.771326        -0.427266         3.587887
 H        -4.893641        -1.389656         2.688350
 H        -3.606989        -2.109168         3.496020
