19
Iteration:  3043charge 0 multiplicity 1
 C         1.971090        -0.520796         0.243202
 C         0.452125        -0.383256         0.166733
 C        -0.728619        -0.182213        -0.055318
 C        -2.152178        -0.196976        -0.311966
 C        -2.744018         0.759216        -1.360242
 O        -2.857014         0.095126         0.987859
 C        -3.443349        -0.977976         1.593799
 C        -3.816670        -0.726868         3.066448
 O        -3.678938        -2.075983         1.031788
 H         2.396613        -0.331222         1.269008
 H         2.188705        -1.503982        -0.121666
 H         2.498455         0.265747        -0.130108
 H        -2.470180        -1.209647        -0.590722
 H        -3.895841         0.611150        -1.283085
 H        -2.361574         1.740575        -1.232185
 H        -2.568958         0.560997        -2.394668
 H        -2.891731        -0.432221         3.541683
 H        -4.593884        -0.013592         3.272235
 H        -4.292046        -1.575806         3.560185
