19
Iteration:  2949charge 0 multiplicity 1
 C         1.991945         0.166115         0.067035
 C         0.585324        -0.403654         0.068136
 C        -0.583924        -0.588467        -0.231197
 C        -2.007748        -0.551270        -0.212084
 C        -2.546342         0.660536        -1.059793
 O        -2.474794        -0.342672         1.158410
 C        -3.635197        -1.006475         1.634374
 C        -3.850221        -0.661428         3.025048
 O        -4.424616        -1.659078         0.896459
 H         2.195630         0.930240         0.661865
 H         2.653012        -0.687067         0.211014
 H         2.215169         0.751378        -0.856247
 H        -2.420265        -1.535213        -0.526104
 H        -3.635053         0.549607        -1.034387
 H        -2.067755         1.548692        -0.566179
 H        -2.201293         0.551964        -2.078881
 H        -3.202427        -1.265462         3.660834
 H        -3.773390         0.417755         3.314764
 H        -4.935387        -0.962035         3.154242
