19
Iteration:  2721
 C         2.072706         0.058457        -0.138627
 C         0.689383        -0.270058        -0.164434
 C        -0.510263        -0.298308        -0.005422
 C        -1.955700        -0.468660         0.038972
 C        -2.716800         0.451947        -1.037804
 O        -2.484495        -0.291164         1.324156
 C        -3.606346        -1.022282         1.580445
 C        -4.153680        -0.781603         2.979480
 O        -4.239007        -1.665672         0.767635
 H         2.468842         0.995097        -0.699868
 H         2.410991         0.290834         0.838958
 H         2.642657        -0.779329        -0.414142
 H        -2.263983        -1.480204        -0.290761
 H        -3.733089         0.664261        -0.486816
 H        -2.168044         1.342010        -1.288672
 H        -2.947416        -0.100132        -1.925259
 H        -4.726314         0.172598         3.091714
 H        -4.792937        -1.578424         3.398356
 H        -3.251572        -0.584871         3.594990
