19
Iteration:    65charge 0 multiplicity 1
 C         1.801400         0.575014         0.290261
 C         0.368168         0.473136        -0.056074
 C        -0.789144         0.055473        -0.163596
 C        -2.179204        -0.306565        -0.212242
 C        -3.108502         0.668424        -0.891667
 O        -2.650491        -0.272139         1.188290
 C        -3.301731        -1.435754         1.451192
 C        -3.741027        -1.294039         2.871241
 O        -3.432804        -2.477896         0.820907
 H         2.092763        -0.274263         1.078224
 H         2.312132         0.391537        -0.645760
 H         2.077241         1.452374         0.660555
 H        -2.277567        -1.345289        -0.606457
 H        -3.212382         1.578670        -0.321145
 H        -2.692862         0.861210        -1.820726
 H        -3.938114         0.057484        -1.092485
 H        -4.660614        -1.895678         2.896195
 H        -3.009435        -1.749495         3.557170
 H        -4.046740        -0.248861         2.988975
