19
Iteration:  1291charge 0 multiplicity 1
 C         1.501418        -0.391657         0.477539
 C         0.100292        -0.136798         0.159469
 C        -1.044254        -0.327558        -0.298546
 C        -2.533885        -0.107254        -0.515163
 C        -2.913159         1.204704        -1.092230
 O        -3.286877        -0.062447         0.813944
 C        -2.978234        -1.193915         1.582093
 C        -3.793157        -1.186674         2.804663
 O        -2.214157        -2.037017         1.359343
 H         2.060227        -0.612944        -0.523301
 H         2.123427         0.563228         0.877114
 H         1.772696        -1.276147         1.037891
 H        -2.996178        -0.993935        -0.944842
 H        -2.254719         1.979202        -0.687670
 H        -2.814992         1.299060        -2.137297
 H        -3.951349         1.477885        -0.812659
 H        -4.824045        -0.797172         2.565430
 H        -3.856769        -2.276185         3.217417
 H        -3.384698        -0.437381         3.538889
