19
Iteration:  1955
 C         1.884278         0.182166         0.065820
 C         0.492383        -0.184890        -0.159524
 C        -0.678423        -0.242263         0.004469
 C        -2.097076        -0.380351        -0.142903
 C        -2.677159         0.606353        -1.230095
 O        -2.715364        -0.071653         1.188913
 C        -3.482154        -1.131192         1.635708
 C        -3.910772        -0.867653         3.000722
 O        -3.812658        -2.147221         0.960255
 H         2.409433         0.642219        -0.669892
 H         1.967149         0.831135         0.892297
 H         2.416701        -0.798721         0.473989
 H        -2.398348        -1.442395        -0.403005
 H        -2.102296         1.554112        -0.958436
 H        -2.391031         0.279176        -2.221754
 H        -3.741804         0.668356        -1.129229
 H        -4.823921        -0.187423         2.960865
 H        -4.333832        -1.789180         3.402031
 H        -3.031350        -0.381918         3.495251
