19
Iteration:  2182
 C         1.731199        -0.510510         0.382473
 C         0.266888        -0.481550        -0.161415
 C        -0.957435        -0.283548        -0.279601
 C        -2.379675        -0.039128        -0.480527
 C        -2.634361         1.230481        -1.169177
 O        -3.227084         0.030798         0.926383
 C        -3.256936        -1.059564         1.647271
 C        -4.052779        -1.042813         2.983502
 O        -2.620336        -2.096992         1.376456
 H         1.861765         0.287492         1.217112
 H         1.807570        -1.505989         0.810723
 H         2.497669        -0.328158        -0.401476
 H        -2.852808        -0.912450        -0.861564
 H        -1.916964         2.065699        -0.780569
 H        -2.338144         1.085216        -2.254064
 H        -3.677993         1.486736        -1.177712
 H        -3.430161        -0.440526         3.720558
 H        -5.086850        -0.717896         2.771104
 H        -3.995032        -2.056837         3.357673
