19
Iteration:  1788
 C         1.898887         0.607219        -0.175158
 C         0.579077         0.031592        -0.182875
 C        -0.542781        -0.366554        -0.058103
 C        -1.950852        -0.722454         0.018286
 C        -2.616180         0.269616        -0.992424
 O        -2.406313        -0.564679         1.420318
 C        -3.621236        -1.065460         1.572007
 C        -3.998884        -0.920371         3.030653
 O        -4.288799        -1.560233         0.714184
 H         2.662755        -0.060876        -0.393786
 H         2.012658         1.522334        -0.870540
 H         2.001114         1.009981         0.945602
 H        -2.022636        -1.825136        -0.061476
 H        -2.479473         1.309392        -0.754523
 H        -2.122321         0.325770        -2.008894
 H        -3.714636         0.050775        -1.237503
 H        -3.668517        -1.834316         3.590259
 H        -3.492812         0.003953         3.475925
 H        -5.138373        -0.847496         2.934768
