19
Iteration:  3874charge 0 multiplicity 1
 C         2.103168        -0.454010        -0.213846
 C         0.656668        -0.173905        -0.295922
 C        -0.561076        -0.217502        -0.200138
 C        -2.014822        -0.427508        -0.023079
 C        -2.813751         0.779910        -0.852649
 O        -2.324034        -0.428666         1.474171
 C        -3.567864        -1.001493         1.616782
 C        -4.292789        -0.596736         2.964753
 O        -4.150646        -1.668944         0.849970
 H         2.333689        -1.093000        -1.101600
 H         2.848989         0.315251        -0.415177
 H         2.590233        -1.015129         0.632895
 H        -2.387483        -1.412567        -0.451699
 H        -3.839877         0.788837        -0.726922
 H        -2.397930         1.787104        -0.556200
 H        -2.471295         0.475408        -1.831173
 H        -5.087952        -1.324320         3.112372
 H        -3.573822        -0.593433         3.780383
 H        -4.633863         0.397168         2.746391
