19
Iteration:  2552charge 0 multiplicity 1
 C         1.828129        -0.190087         0.101395
 C         0.369983        -0.328246         0.153993
 C        -0.823010        -0.309818        -0.120210
 C        -2.213697        -0.193325        -0.219285
 C        -2.581066         0.872352        -1.282838
 O        -2.797448         0.020697         1.112620
 C        -3.329367        -1.083762         1.597030
 C        -3.875992        -0.938340         3.010148
 O        -3.620196        -2.091795         1.009067
 H         2.433299        -0.692268        -0.732502
 H         2.125817         0.888896         0.174192
 H         2.173486        -0.609658         1.089716
 H        -2.648701        -1.172605        -0.446878
 H        -1.878852         1.668365        -1.238568
 H        -2.409688         0.133451        -2.168132
 H        -3.638715         1.265699        -1.301972
 H        -3.312940        -1.480323         3.774503
 H        -3.823254         0.157105         3.269287
 H        -4.941749        -1.301131         3.071802
