19
Iteration:  2174
 C         1.697120        -0.486990         0.382366
 C         0.247275        -0.429052        -0.161133
 C        -0.945200        -0.270695        -0.345438
 C        -2.374278        -0.113630        -0.423775
 C        -2.600600         1.208390        -1.211373
 O        -3.181191         0.129522         0.999709
 C        -3.272573        -1.130789         1.617444
 C        -4.068706        -1.029754         2.937735
 O        -2.640730        -2.119830         1.382054
 H         1.847416         0.253494         1.105699
 H         1.809610        -1.431601         0.895924
 H         2.669971        -0.458252        -0.394455
 H        -2.805475        -0.954720        -0.946575
 H        -2.053025         2.001184        -0.778646
 H        -2.353457         0.889897        -2.299629
 H        -3.614089         1.577859        -0.965042
 H        -3.463449        -0.600016         3.785649
 H        -5.103563        -0.638995         3.095567
 H        -4.066142        -2.095039         3.160254
