19
Iteration:   879charge 0 multiplicity 1
 C         2.074242         0.973495        -0.234975
 C         0.582114         0.467531        -0.052769
 C        -0.561562        -0.034932        -0.048401
 C        -1.878666        -0.712636        -0.106954
 C        -2.708506         0.293622        -0.894339
 O        -2.383801        -0.793583         1.369267
 C        -3.616177        -1.289893         1.625567
 C        -4.154275        -1.164663         3.051709
 O        -4.252118        -1.829606         0.694104
 H         1.958601         2.137190        -0.261157
 H         2.687544         0.577484         0.467664
 H         2.362638         0.550993        -1.298076
 H        -1.810617        -1.754344        -0.398108
 H        -2.203378         1.238879        -0.844835
 H        -2.769407         0.021790        -2.055634
 H        -3.762825         0.207559        -0.742353
 H        -4.079076        -0.189306         3.667072
 H        -5.302024        -1.442082         3.032847
 H        -3.853894        -2.113026         3.662784
