19
Iteration:  2818
 C         2.040091         0.216782        -0.434752
 C         0.747930        -0.231604         0.024338
 C        -0.431375        -0.297716         0.211763
 C        -1.814146        -0.638922         0.101604
 C        -2.500743         0.265971        -1.048241
 O        -2.514426        -0.599086         1.343730
 C        -3.852534        -0.930230         1.555579
 C        -3.974527        -0.804690         3.060688
 O        -4.611556        -1.239822         0.651299
 H         2.311863         1.371195        -0.374700
 H         2.833398        -0.139843         0.195472
 H         2.271668        -0.296850        -1.340945
 H        -1.712683        -1.715030        -0.077372
 H        -3.321369        -0.365672        -1.603120
 H        -3.089728         1.084523        -0.644586
 H        -1.779024         0.610103        -1.725592
 H        -4.814579        -1.503345         3.279367
 H        -3.050665        -1.106712         3.629978
 H        -4.332598         0.202812         3.413825
