19
Iteration:   109
 C         1.789747         0.439200         0.308160
 C         0.304963         0.272490         0.135528
 C        -0.894131         0.253295        -0.172409
 C        -2.273483        -0.101056        -0.396377
 C        -3.018596         0.863741        -1.206205
 O        -2.846583        -0.300395         1.076243
 C        -3.233412        -1.497901         1.594088
 C        -3.723859        -1.384518         3.008900
 O        -3.187769        -2.561875         0.985869
 H         2.410523        -0.579752         0.524209
 H         2.201770         0.869700        -0.618337
 H         2.075166         1.044411         1.080868
 H        -2.427532        -1.115721        -0.803396
 H        -2.629882         1.840636        -1.154834
 H        -3.018433         0.685512        -2.218768
 H        -4.035876         0.829554        -0.944954
 H        -4.589085        -2.028165         3.156526
 H        -2.986602        -1.876795         3.695765
 H        -3.956038        -0.365700         3.345216
