19
Iteration:  1596
 C         1.956612         0.333907        -0.028732
 C         0.471489         0.130635        -0.185101
 C        -0.714116        -0.081633        -0.108955
 C        -2.087963        -0.511964        -0.112323
 C        -2.800408         0.546914        -0.876341
 O        -2.448941        -0.478949         1.287644
 C        -3.554734        -1.213590         1.546857
 C        -3.949524        -0.821643         2.935989
 O        -3.909936        -2.082059         0.807578
 H         2.040747         0.645954         1.119873
 H         2.524161        -0.574263        -0.087922
 H         2.368263         1.144025        -0.571714
 H        -2.283968        -1.426842        -0.612279
 H        -2.538809         1.580051        -0.444406
 H        -2.338229         0.639242        -1.814906
 H        -3.910769         0.209218        -0.949537
 H        -3.805191         0.195380         3.237040
 H        -4.964618        -1.035739         3.211397
 H        -3.306745        -1.342727         3.644269
