19
Iteration:  4747
 C         1.985772        -0.620520        -0.457624
 C         0.664124        -0.435955        -0.027139
 C        -0.512141        -0.319599        -0.155130
 C        -1.965335        -0.392371        -0.104159
 C        -2.779533         0.624587        -0.922245
 O        -2.349134        -0.374870         1.356846
 C        -3.637670        -0.811807         1.666335
 C        -3.845349        -0.609611         3.140818
 O        -4.471814        -1.299299         0.883759
 H         2.442648         0.235967        -1.038007
 H         2.660986        -1.095924         0.319766
 H         1.814878        -1.429014        -1.223714
 H        -2.266043        -1.424832        -0.404041
 H        -3.685895         0.164588        -1.172093
 H        -2.894475         1.521722        -0.384247
 H        -2.207696         0.859656        -1.820209
 H        -3.027927        -1.076248         3.688227
 H        -3.932146         0.489226         3.289371
 H        -4.797601        -0.992657         3.532923
