19
Iteration:  2113
 C         1.741933        -0.380686         0.231926
 C         0.287763        -0.334983         0.157684
 C        -0.871329        -0.225085        -0.229602
 C        -2.314104        -0.120618        -0.311642
 C        -2.864407         1.024039        -1.050298
 O        -2.864428        -0.018402         0.974713
 C        -3.266856        -1.158621         1.557068
 C        -4.016752        -0.772660         2.814303
 O        -2.897632        -2.248565         1.212501
 H         2.280382         0.651698         0.364514
 H         1.999513        -1.026424         1.131437
 H         2.120063        -0.826391        -0.608155
 H        -2.793009        -1.028073        -0.816094
 H        -2.546841         2.063382        -0.753811
 H        -2.534223         1.000057        -2.068452
 H        -3.982748         0.901659        -1.159061
 H        -3.643156        -1.370032         3.664431
 H        -4.061176         0.320356         2.892183
 H        -5.078590        -1.133942         2.647906
