19
Iteration:  4863
 C         1.852347        -0.728625        -0.541436
 C         0.510812        -0.519879        -0.131314
 C        -0.698262        -0.487525         0.038187
 C        -2.163158        -0.283448        -0.110788
 C        -2.405509         1.048258        -0.839448
 O        -2.649580        -0.031385         1.228282
 C        -3.507740        -0.924547         1.680887
 C        -3.937194        -0.496648         2.965936
 O        -3.999084        -1.950662         1.121414
 H         2.018690        -0.254946        -1.497187
 H         2.555616        -0.198232         0.087128
 H         2.295339        -1.683847        -0.748485
 H        -2.806802        -1.086672        -0.503960
 H        -3.494882         1.377226        -0.625420
 H        -1.627066         1.751945        -0.384049
 H        -2.260292         1.232372        -1.918725
 H        -4.116340        -1.410247         3.524870
 H        -3.240751         0.283059         3.279143
 H        -4.870344         0.069032         2.782390
