19
Iteration:  3163
 C         1.548954        -0.873596         0.423840
 C         0.192402        -0.530692         0.030068
 C        -0.960649        -0.359499        -0.246407
 C        -2.423680        -0.077121        -0.447065
 C        -2.651024         1.277437        -1.087230
 O        -3.202549        -0.027672         0.742910
 C        -3.090143        -1.055030         1.604655
 C        -4.048640        -0.592774         2.719548
 O        -2.464845        -2.085369         1.550924
 H         1.595117        -1.424164         1.433084
 H         2.048408        -1.459832        -0.335069
 H         2.078609         0.052608         0.672347
 H        -2.707014        -0.940801        -1.154183
 H        -3.782433         1.567913        -1.479793
 H        -2.399237         2.092538        -0.350564
 H        -2.013276         1.340415        -1.942497
 H        -3.748612         0.414344         3.043939
 H        -5.025686        -0.391261         2.149681
 H        -4.250817        -1.251200         3.615454
