19
Iteration:  4323charge 0 multiplicity 1
 C         1.715574        -0.804993        -0.333017
 C         0.279701        -0.713343        -0.221832
 C        -0.975131        -0.683030        -0.126845
 C        -2.289009        -0.070855        -0.226435
 C        -2.136262         1.323737        -0.875885
 O        -2.969080         0.096208         1.013779
 C        -3.441447        -0.934467         1.730167
 C        -4.098603        -0.562707         3.051031
 O        -3.252602        -2.067362         1.291362
 H         2.249061        -1.372471         0.477346
 H         2.450297        -0.904094        -1.143212
 H         1.941463         0.288835         0.029716
 H        -3.013841        -0.678983        -0.890379
 H        -3.167207         1.533757        -1.213106
 H        -1.667834         1.974132        -0.262345
 H        -1.488283         1.242571        -1.721797
 H        -4.756255        -1.393217         3.299508
 H        -3.277470        -0.580883         3.767824
 H        -4.486786         0.431617         3.132046
