19
Iteration:  4927charge 0 multiplicity 1
 C         1.820172        -0.860262        -0.263774
 C         0.400664        -0.642088        -0.405146
 C        -0.760117        -0.392992        -0.367384
 C        -2.148281        -0.056211        -0.200355
 C        -2.361715         1.308074        -0.885134
 O        -2.677627        -0.005257         1.158006
 C        -3.416953        -0.997198         1.781113
 C        -4.082878        -0.576220         3.021309
 O        -3.758192        -2.086451         1.369777
 H         2.244151        -0.872534        -1.298382
 H         2.100111         0.062185         0.257106
 H         2.118812        -1.877078         0.238663
 H        -2.676432        -0.919007        -0.628007
 H        -3.306288         1.205100        -1.522024
 H        -2.504775         2.031104        -0.010053
 H        -1.576221         1.642393        -1.562167
 H        -4.930607        -1.263811         3.212571
 H        -3.538858        -0.776995         3.993400
 H        -4.467267         0.497560         3.032482
