19
Iteration:  2164charge 0 multiplicity 1
 C         1.584193        -0.488276         0.361595
 C         0.292354        -0.333320        -0.126036
 C        -0.890242        -0.296814        -0.359798
 C        -2.381046        -0.117517        -0.338754
 C        -2.606307         1.151413        -1.208750
 O        -3.060674         0.150699         1.008016
 C        -3.280018        -1.101746         1.665638
 C        -4.090382        -1.081442         2.904017
 O        -2.678308        -2.148281         1.347415
 H         1.784492         0.358052         0.916901
 H         1.762241        -1.355804         0.988967
 H         2.370462        -0.482206        -0.545315
 H        -2.935098        -0.984350        -0.750061
 H        -1.886561         1.849514        -0.978381
 H        -2.481162         1.078295        -2.336109
 H        -3.668483         1.494574        -1.162176
 H        -3.361810        -0.673640         3.631960
 H        -4.946328        -0.365897         2.936449
 H        -4.437209        -2.078329         3.158013
