19
Iteration:   308charge 0 multiplicity 1
 C         1.491825        -0.160375         0.337961
 C         0.014249        -0.054306         0.159886
 C        -1.122448         0.079821        -0.145932
 C        -2.455739        -0.018693        -0.420425
 C        -3.007863         1.207562        -1.245925
 O        -3.247612        -0.219437         0.799933
 C        -2.923594        -1.373886         1.604430
 C        -3.840214        -1.436470         2.878706
 O        -2.062634        -2.172913         1.388464
 H         1.834543         0.791691        -0.276976
 H         1.566895         0.088675         1.382795
 H         1.991624        -0.989556         0.141875
 H        -2.680416        -0.847125        -1.176951
 H        -2.886833         2.139322        -0.862466
 H        -2.490382         1.124541        -2.221115
 H        -4.017628         1.082461        -1.242787
 H        -3.776356        -2.485814         3.251960
 H        -3.606164        -0.623848         3.598960
 H        -4.911829        -1.267179         2.689611
