19
Iteration:  2893charge 0 multiplicity 1
 C         2.062460         0.227074        -0.061184
 C         0.614345        -0.120512        -0.256253
 C        -0.528421        -0.524218        -0.137665
 C        -1.918247        -0.752753         0.046611
 C        -2.651652         0.314345        -0.845338
 O        -2.349699        -0.619260         1.381285
 C        -3.712721        -0.883765         1.581721
 C        -4.047004        -0.750476         2.965786
 O        -4.410846        -1.237432         0.653275
 H         2.168658         1.104800         0.506958
 H         2.783252        -0.461709         0.425146
 H         2.601334         0.304729        -1.072743
 H        -2.216149        -1.785862        -0.217811
 H        -3.719139         0.652926        -0.531531
 H        -2.147044         1.265371        -0.833278
 H        -2.658608         0.029450        -1.864192
 H        -4.106589        -1.634807         3.602704
 H        -3.399694         0.097168         3.265553
 H        -5.072446        -0.315695         2.956779
