19
Iteration:  4792
 C         2.002381        -0.694450        -0.499796
 C         0.530513        -0.536406        -0.421839
 C        -0.573398        -0.402148         0.027863
 C        -1.940293        -0.340921         0.048890
 C        -2.582018         0.714507        -0.926004
 O        -2.508455         0.008630         1.314770
 C        -3.647103        -0.756823         1.704805
 C        -4.016764        -0.753244         3.206801
 O        -4.231017        -1.524131         0.886572
 H         2.436166         0.176045        -1.084768
 H         2.420417        -0.576204         0.534872
 H         2.541487        -1.550212        -0.996724
 H        -2.434577        -1.286402        -0.137754
 H        -3.594027         0.577343        -0.786838
 H        -2.252273         1.683278        -0.735431
 H        -2.351463         0.523655        -2.010863
 H        -3.378359        -1.590624         3.607385
 H        -3.877880         0.259456         3.676701
 H        -5.068925        -1.049091         3.346268
