19
Iteration:  2325charge 0 multiplicity 1
 C         1.586780        -0.715453         0.390948
 C         0.175449        -0.418424         0.067999
 C        -0.988725        -0.255156        -0.229391
 C        -2.431350        -0.035390        -0.472591
 C        -2.795729         1.313489        -1.061869
 O        -3.125713         0.032364         0.880901
 C        -3.097169        -1.113748         1.591557
 C        -3.959570        -0.940329         2.797324
 O        -2.479289        -2.112062         1.329336
 H         1.715360        -1.168555         1.409992
 H         2.035818        -1.388180        -0.309286
 H         2.107601         0.236286         0.421893
 H        -2.843531        -0.904147        -1.067165
 H        -2.308663         2.056311        -0.502087
 H        -2.327488         1.250182        -2.127193
 H        -3.909887         1.215228        -1.181432
 H        -4.606159        -0.055300         2.631352
 H        -4.652948        -1.787272         2.973206
 H        -3.481519        -0.534562         3.698535
