19
Iteration:  1574charge 0 multiplicity 1
 C         1.955401         0.356522         0.052842
 C         0.524333         0.228950        -0.179062
 C        -0.585586        -0.303288        -0.248539
 C        -2.043844        -0.438690        -0.206070
 C        -2.812715         0.769058        -0.954273
 O        -2.533109        -0.400119         1.186365
 C        -3.495833        -1.298693         1.607580
 C        -3.994484        -0.845734         2.991236
 O        -3.968206        -2.246868         0.973003
 H         2.240444         0.769582         1.135602
 H         2.243893        -0.682754         0.110155
 H         2.469773         0.872468        -0.711009
 H        -2.362394        -1.361251        -0.640260
 H        -2.363072         1.687070        -0.432402
 H        -2.531845         0.905683        -1.952645
 H        -3.905999         0.456583        -0.749325
 H        -3.714084         0.134316         3.359082
 H        -5.066883        -0.936499         3.054512
 H        -3.656034        -1.464932         3.823022
