19
Iteration:  3431
 C         1.884131        -0.569765        -0.092954
 C         0.441064        -0.483025         0.059239
 C        -0.745830        -0.289544         0.036985
 C        -2.169357        -0.267547        -0.153308
 C        -2.525206         0.821466        -1.236682
 O        -3.001712         0.089896         0.967752
 C        -3.564680        -1.005346         1.595974
 C        -4.087557        -0.445120         2.958463
 O        -3.312552        -2.150085         1.274483
 H         2.312136        -1.492925        -0.554000
 H         2.409246         0.374479        -0.494444
 H         2.232644        -0.444310         0.941123
 H        -2.647888        -1.137263        -0.612160
 H        -3.486649         0.795626        -1.588417
 H        -2.310080         1.924578        -1.010872
 H        -1.792865         0.553070        -2.025484
 H        -4.923964         0.218873         2.849982
 H        -4.388933        -1.372382         3.449721
 H        -3.268927         0.070820         3.486577
