19
Iteration:  4850charge 0 multiplicity 1
 C         1.918063        -0.664673        -0.575664
 C         0.488103        -0.542948        -0.129290
 C        -0.711308        -0.513920        -0.011452
 C        -2.106935        -0.274006        -0.081701
 C        -2.384942         1.065241        -0.963040
 O        -2.587798        -0.064819         1.258879
 C        -3.549773        -0.912133         1.731985
 C        -4.048708        -0.546846         3.084088
 O        -3.998742        -1.858130         1.055028
 H         1.976559        -0.124872        -1.509417
 H         2.647112        -0.349475         0.144700
 H         1.964338        -1.777350        -0.642613
 H        -2.533500        -1.167882        -0.491000
 H        -3.420416         1.471226        -0.660022
 H        -1.665191         1.920640        -0.732757
 H        -2.357317         0.689414        -1.960460
 H        -4.067898        -1.466095         3.769001
 H        -3.396312         0.152222         3.649596
 H        -5.122709        -0.243495         3.081369
