19
Iteration:  3910charge 0 multiplicity 1
 C         2.006779        -0.613110        -0.088445
 C         0.587842        -0.367289        -0.142833
 C        -0.621656        -0.205989        -0.076188
 C        -2.041186        -0.239843        -0.147577
 C        -2.858334         0.842708        -0.826776
 O        -2.531701        -0.064624         1.273365
 C        -3.520345        -0.990217         1.542488
 C        -3.961384        -0.714958         2.928074
 O        -3.982159        -1.871984         0.856653
 H         2.068800        -1.353449        -1.006805
 H         2.491450         0.348716        -0.394461
 H         2.372515        -1.118553         0.830696
 H        -2.218950        -1.288506        -0.286103
 H        -3.938142         0.800108        -0.574415
 H        -2.505649         1.817960        -0.683607
 H        -2.900504         0.711141        -1.880267
 H        -4.313492        -1.599841         3.471668
 H        -3.196510        -0.197086         3.514263
 H        -4.836189         0.002055         2.981797
