19
Iteration:   691
 C         1.928158         0.631896         0.094478
 C         0.522804         0.341490         0.009565
 C        -0.684244         0.176040        -0.216581
 C        -2.037067        -0.488406        -0.229982
 C        -3.083544         0.299974        -1.056137
 O        -2.376603        -0.404112         1.284575
 C        -3.447668        -1.293735         1.568210
 C        -3.954624        -1.237561         3.077946
 O        -3.890814        -2.079170         0.761039
 H         2.671543         0.240048        -0.742052
 H         2.106705         1.667080         0.088715
 H         2.437748         0.352140         1.198448
 H        -2.028112        -1.542373        -0.287925
 H        -2.946266         1.383079        -0.727034
 H        -2.890130         0.325542        -2.102314
 H        -4.055958        -0.258143        -0.958370
 H        -4.593055        -2.202658         3.173622
 H        -2.960219        -1.476320         3.643864
 H        -4.485187        -0.248761         3.325431
