19
Iteration:  3002
 C         1.917323        -0.262473         0.168161
 C         0.530445        -0.218089        -0.045813
 C        -0.663382        -0.386677        -0.058529
 C        -2.088709        -0.337096        -0.283662
 C        -2.490143         0.737109        -1.251175
 O        -2.734494        -0.067651         1.053777
 C        -3.570068        -1.064168         1.664228
 C        -3.751442        -0.714131         3.056976
 O        -4.156546        -1.976243         1.023110
 H         1.994121         0.251733         1.268321
 H         2.404945        -1.309935         0.159779
 H         2.509764         0.573331        -0.449020
 H        -2.465508        -1.352631        -0.637219
 H        -3.522797         0.507680        -1.651933
 H        -2.417712         1.736821        -0.738094
 H        -1.746807         0.621704        -2.023124
 H        -2.777924        -0.678193         3.498699
 H        -4.024797         0.358921         3.026781
 H        -4.426013        -1.398360         3.629786
