19
Iteration:  3000
 C         1.916443        -0.245345         0.165933
 C         0.537591        -0.213033        -0.059780
 C        -0.647760        -0.401613        -0.047061
 C        -2.092044        -0.356136        -0.280030
 C        -2.486422         0.747139        -1.247373
 O        -2.734093        -0.093251         1.059410
 C        -3.577648        -1.064159         1.645039
 C        -3.743168        -0.714401         3.054649
 O        -4.163407        -1.956303         1.025695
 H         2.040081         0.317453         1.246391
 H         2.343003        -1.285612         0.147029
 H         2.449560         0.551138        -0.392878
 H        -2.563983        -1.321344        -0.546937
 H        -3.529445         0.489107        -1.682435
 H        -2.385856         1.680638        -0.738310
 H        -1.751830         0.659995        -1.995589
 H        -2.775570        -0.674724         3.509030
 H        -4.015275         0.327929         3.017564
 H        -4.454546        -1.319556         3.613772
