19
Iteration:  4713
 C         2.137210        -0.524810        -0.297793
 C         0.677306        -0.395414        -0.248611
 C        -0.535530        -0.315977        -0.184527
 C        -1.992039        -0.508841        -0.170746
 C        -2.819508         0.623131        -0.897255
 O        -2.312650        -0.666810         1.185042
 C        -3.617731        -0.822452         1.729436
 C        -3.861012        -0.566782         3.251251
 O        -4.608517        -1.096294         0.966200
 H         2.863978         0.374998        -0.459729
 H         2.618887        -1.093073         0.585002
 H         2.345742        -1.185275        -1.167636
 H        -2.349653        -1.491425        -0.600664
 H        -3.881421         0.477098        -1.145184
 H        -2.757858         1.555735        -0.335389
 H        -2.314154         0.774035        -1.789833
 H        -2.968943        -0.646753         3.844561
 H        -4.113065         0.500912         3.293240
 H        -4.685302        -1.247105         3.494758
