19
Iteration:    61
 C         1.786220         0.575497         0.271329
 C         0.381045         0.447905        -0.065068
 C        -0.763413         0.068917        -0.162085
 C        -2.141740        -0.322323        -0.215656
 C        -3.118624         0.642124        -0.890354
 O        -2.640331        -0.267239         1.201405
 C        -3.308312        -1.444356         1.464848
 C        -3.763744        -1.305258         2.859034
 O        -3.453073        -2.463674         0.811141
 H         2.079821        -0.136488         1.080110
 H         2.403412         0.371916        -0.633442
 H         2.112984         1.662804         0.736786
 H        -2.288255        -1.384443        -0.492366
 H        -3.234669         1.616096        -0.310763
 H        -2.735415         1.103176        -1.860016
 H        -4.074361         0.085121        -1.165018
 H        -4.673497        -1.948951         2.998301
 H        -3.032203        -1.730812         3.562058
 H        -4.008789        -0.242220         3.048272
