19
Iteration:    92
 C         1.748542         0.438155         0.277919
 C         0.341745         0.433193         0.124686
 C        -0.815383         0.181376        -0.160130
 C        -2.190059        -0.289986        -0.367899
 C        -3.118228         0.866666        -1.134440
 O        -2.753183        -0.285997         1.149706
 C        -3.251362        -1.515162         1.546897
 C        -3.757191        -1.320504         3.034693
 O        -3.261393        -2.553211         0.862531
 H         1.981456        -0.477291         0.621165
 H         2.235581         0.602188        -0.701187
 H         2.050143         1.325503         1.025953
 H        -2.148799        -1.328895        -0.714363
 H        -2.714831         1.793408        -0.653719
 H        -2.917208         0.713396        -2.315004
 H        -4.217648         0.666229        -0.906535
 H        -4.735837        -1.798066         3.170634
 H        -2.960440        -1.695531         3.665161
 H        -3.923753        -0.249481         3.065582
