19
Iteration:  4793charge 0 multiplicity 1
 C         2.008935        -0.696302        -0.502917
 C         0.533399        -0.537737        -0.426550
 C        -0.575656        -0.402959         0.022597
 C        -1.953205        -0.333748         0.049347
 C        -2.572534         0.717442        -0.927891
 O        -2.509112         0.014846         1.315547
 C        -3.645193        -0.763048         1.698397
 C        -4.020673        -0.754101         3.201764
 O        -4.226840        -1.526012         0.902204
 H         2.382282         0.186284        -1.068023
 H         2.398634        -0.569516         0.516568
 H         2.560333        -1.570424        -0.969998
 H        -2.415914        -1.271498        -0.133595
 H        -3.606264         0.571630        -0.755208
 H        -2.204168         1.696941        -0.758230
 H        -2.330009         0.506544        -2.003438
 H        -3.419661        -1.635114         3.599078
 H        -3.923429         0.249539         3.690708
 H        -5.078020        -1.054441         3.344016
