19
Iteration:  3591
 C         2.044096        -0.068511         0.270178
 C         0.589237        -0.300157        -0.019704
 C        -0.603845        -0.301094        -0.268877
 C        -2.052212        -0.575906        -0.324742
 C        -2.951181         0.219621        -1.276622
 O        -2.333167        -0.447982         1.160637
 C        -3.536017        -0.804592         1.602721
 C        -3.662347        -0.646361         3.115878
 O        -4.438938        -1.303927         1.018870
 H         2.733479        -0.557956        -0.415853
 H         2.129730         0.987461         0.317614
 H         2.188398        -0.485677         1.266684
 H        -2.072172        -1.740072        -0.515401
 H        -4.028727         0.038769        -1.113920
 H        -2.769497         1.373265        -1.193554
 H        -2.598720        -0.194988        -2.296448
 H        -4.559606        -0.025015         3.190228
 H        -3.949504        -1.711467         3.383363
 H        -2.763205        -0.249747         3.635877
