19
Iteration:  4100charge 0 multiplicity 1
 C         1.181686        -1.169906         0.584988
 C         0.040377        -0.624527        -0.107463
 C        -1.134639        -0.296269        -0.335052
 C        -2.486793         0.039044        -0.456934
 C        -2.520018         1.525533        -0.967576
 O        -3.118168         0.078510         0.780066
 C        -3.060862        -1.014326         1.571275
 C        -3.377863        -0.723421         3.074861
 O        -2.702191        -2.079896         1.064397
 H         1.124192        -2.275555         0.323040
 H         2.282077        -0.909184         0.402277
 H         0.903111        -1.227460         1.711425
 H        -3.185262        -0.494633        -1.191501
 H        -3.503674         1.847883        -0.975789
 H        -2.043522         2.205230        -0.218903
 H        -2.055228         1.555906        -1.965517
 H        -3.125329         0.364584         3.246615
 H        -4.418083        -0.922089         3.395115
 H        -2.644914        -1.289732         3.689183
