19
Iteration:  3757charge 0 multiplicity 1
 C         1.892286         0.325178        -0.576944
 C         0.659936        -0.289745        -0.181319
 C        -0.413584        -0.750746         0.106045
 C        -1.901086        -0.776720         0.078187
 C        -2.196665         0.293155        -0.911317
 O        -2.416883        -0.684377         1.530916
 C        -3.814465        -0.841320         1.585203
 C        -4.189777        -0.627724         3.062641
 O        -4.535752        -1.081455         0.674183
 H         2.326794         0.025043        -1.562393
 H         1.765923         1.371408        -0.430026
 H         2.640603         0.109068         0.170219
 H        -2.350431        -1.714184        -0.246224
 H        -3.286642         0.715535        -0.942930
 H        -1.722130         1.325929        -0.720680
 H        -1.841142        -0.121238        -1.851007
 H        -5.287128        -0.587478         3.315551
 H        -3.879625        -1.431234         3.782637
 H        -3.679863         0.237762         3.578580
