19
Iteration:  1653
 C         2.173619         0.442903        -0.202526
 C         0.748989         0.145546        -0.055149
 C        -0.474629        -0.063607        -0.090455
 C        -1.942165        -0.575415        -0.033238
 C        -2.982504         0.239361        -0.987683
 O        -2.449985        -0.392723         1.354159
 C        -3.668046        -1.044399         1.566284
 C        -4.080996        -1.157866         3.043868
 O        -4.249721        -1.721751         0.754263
 H         2.749512         0.278314         0.807370
 H         2.708857        -0.116233        -1.068113
 H         2.210120         1.423742        -0.466422
 H        -1.913355        -1.604907        -0.324304
 H        -3.005716         1.174973        -0.409728
 H        -2.492856         0.164262        -2.028471
 H        -3.991437        -0.161747        -1.000828
 H        -4.860604        -0.410973         3.181792
 H        -4.330478        -2.200458         3.249446
 H        -3.276026        -0.880659         3.750902
