19
Iteration:  2299charge 0 multiplicity 1
 C         1.560747        -0.751716         0.331721
 C         0.232453        -0.399921        -0.069677
 C        -0.920967        -0.067347        -0.058095
 C        -2.373192        -0.032621        -0.390544
 C        -2.714524         1.386069        -1.096805
 O        -3.349075        -0.204673         0.692726
 C        -3.172766        -1.160921         1.582899
 C        -3.920051        -0.847217         2.908795
 O        -2.444745        -2.128608         1.379090
 H         1.542258        -1.011162         1.496383
 H         1.984695        -1.691303        -0.161454
 H         2.238742         0.094352         0.229926
 H        -2.536131        -0.923642        -1.083491
 H        -2.547112         2.176742        -0.250972
 H        -2.122287         1.550901        -1.930546
 H        -3.724948         1.253763        -1.328661
 H        -4.324063         0.181036         2.828486
 H        -4.798188        -1.466159         3.029010
 H        -3.394418        -0.690913         3.834967
