19
Iteration:  1132
 C         1.694862         0.075039         0.373031
 C         0.337020        -0.095446        -0.027848
 C        -0.851360        -0.085449        -0.306587
 C        -2.315565        -0.203026        -0.313769
 C        -2.955200         0.939980        -1.152544
 O        -2.977696        -0.048697         0.984509
 C        -3.252848        -1.205000         1.603819
 C        -3.808134        -1.196592         3.012069
 O        -2.953384        -2.325526         1.119869
 H         2.156266        -0.945660         0.787806
 H         2.220573         0.338649        -0.459448
 H         1.728864         0.921350         1.106966
 H        -2.572267        -1.206480        -0.664448
 H        -2.635741         1.974247        -0.803343
 H        -2.483653         0.834675        -2.056710
 H        -4.064059         0.728397        -1.253378
 H        -3.001837        -1.724131         3.513826
 H        -4.073284        -0.230730         3.430681
 H        -4.649269        -1.796335         2.784608
