19
Iteration:  1854
 C         2.032240         0.427623         0.008587
 C         0.669361        -0.028436        -0.109491
 C        -0.563729        -0.080144        -0.134735
 C        -1.949277        -0.566906        -0.061965
 C        -2.969422         0.348524        -0.903979
 O        -2.404514        -0.645826         1.242168
 C        -3.554745        -1.212504         1.553696
 C        -3.891046        -0.618103         2.936925
 O        -4.282192        -1.849402         0.783708
 H         2.762378         0.054767        -0.619003
 H         2.087343         1.532150        -0.020646
 H         2.375963         0.066352         1.016119
 H        -2.021273        -1.529948        -0.566008
 H        -2.823718         1.388852        -0.533553
 H        -2.632590         0.253175        -1.908303
 H        -3.947182        -0.151522        -0.679884
 H        -3.085933         0.042572         3.242140
 H        -4.827781         0.004143         2.769589
 H        -4.284978        -1.328945         3.730273
