19
Iteration:  1383charge 0 multiplicity 1
 C         1.714892        -0.353529         0.271624
 C         0.273766        -0.008310         0.224150
 C        -0.882048        -0.095888        -0.237315
 C        -2.378079        -0.119550        -0.420417
 C        -3.089525         1.069838        -1.103676
 O        -3.044506        -0.078405         0.897473
 C        -3.068904        -1.209290         1.612962
 C        -4.000646        -1.047788         2.905844
 O        -2.584055        -2.260584         1.227793
 H         2.295259         0.171533        -0.445957
 H         2.227954        -0.449101         1.276541
 H         1.628765        -1.473373        -0.223942
 H        -2.670575        -1.058562        -0.996731
 H        -3.110776         1.908360        -0.361118
 H        -2.507174         1.430022        -2.065690
 H        -4.112258         0.787786        -1.313815
 H        -4.345909        -2.027081         3.205868
 H        -3.428944        -0.595956         3.703178
 H        -4.824372        -0.430117         2.502111
