19
Iteration:   652
 C         1.909189         0.499093         0.212962
 C         0.453696         0.367459        -0.176856
 C        -0.705836         0.043447        -0.122941
 C        -2.118088        -0.367435        -0.144990
 C        -3.152908         0.367458        -1.033101
 O        -2.513094        -0.240585         1.290951
 C        -3.396761        -1.331882         1.521694
 C        -3.830408        -1.188404         3.009048
 O        -3.634019        -2.242192         0.722025
 H         2.592425        -0.283670        -0.132051
 H         2.291909         1.495225        -0.234734
 H         1.906502         0.597934         1.217028
 H        -2.176060        -1.457676        -0.478113
 H        -3.430895         1.204010        -0.444942
 H        -2.751220         0.685586        -2.060729
 H        -4.089714        -0.147280        -1.236194
 H        -4.916964        -1.356781         3.047049
 H        -3.469053        -1.795381         3.818018
 H        -3.597456        -0.234168         3.416865
