19
Iteration:  4421
 C         1.953188        -0.726704        -0.398756
 C         0.523707        -0.600568        -0.289226
 C        -0.626621        -0.371331        -0.112226
 C        -2.104493        -0.226140        -0.097105
 C        -2.609008         0.984472        -0.913476
 O        -2.495089        -0.110228         1.351902
 C        -3.561698        -0.878775         1.716508
 C        -4.119154        -0.531103         3.080846
 O        -3.965841        -1.839034         0.997336
 H         2.516308        -0.824954         0.555698
 H         2.471151        -1.437280        -1.063891
 H         2.370064         0.218729        -0.919188
 H        -2.545179        -1.243769        -0.561773
 H        -3.695409         0.818724        -1.088636
 H        -2.363427         1.837694        -0.373860
 H        -2.191583         1.012309        -1.923536
 H        -3.941531        -1.359018         3.766152
 H        -3.616388         0.368730         3.419690
 H        -5.202713        -0.335513         3.091506
