19
Iteration:    91
 C         1.747057         0.442957         0.276470
 C         0.338745         0.441764         0.120836
 C        -0.808243         0.172732        -0.159844
 C        -2.189208        -0.287507        -0.356224
 C        -3.120180         0.859892        -1.119279
 O        -2.749181        -0.293089         1.143749
 C        -3.248420        -1.512998         1.548271
 C        -3.760281        -1.314770         3.027406
 O        -3.266477        -2.546941         0.858173
 H         1.972943        -0.465054         0.652482
 H         2.244342         0.590821        -0.700009
 H         2.038277         1.283773         0.995822
 H        -2.160114        -1.328444        -0.698104
 H        -2.730930         1.769811        -0.677246
 H        -2.913525         0.729244        -2.299330
 H        -4.195178         0.638477        -0.931677
 H        -4.718846        -1.796563         3.183788
 H        -2.964731        -1.706767         3.647391
 H        -3.923141        -0.250082         3.058718
