19
Iteration:  4340
 C         1.733210        -0.648770        -0.305782
 C         0.308156        -0.700644        -0.286306
 C        -0.934655        -0.633633        -0.097969
 C        -2.280118        -0.084382        -0.228393
 C        -2.052599         1.277788        -0.935807
 O        -2.972657         0.166815         1.107266
 C        -3.425570        -1.031475         1.710772
 C        -4.043632        -0.556010         3.012383
 O        -3.458173        -2.183704         1.338501
 H         2.157238        -1.416847         0.322517
 H         1.815972        -1.152122        -1.281734
 H         2.334294         0.230375        -0.241875
 H        -2.827446        -0.812677        -0.822086
 H        -2.937621         1.894778        -1.088426
 H        -1.312389         1.927448        -0.223742
 H        -1.501768         1.027972        -1.859042
 H        -4.742624        -1.325930         3.410679
 H        -3.304671        -0.312131         3.821812
 H        -4.556597         0.389695         2.733933
