19
Iteration:  2491charge 0 multiplicity 1
 C         1.847533        -0.389236         0.099700
 C         0.368302        -0.265684         0.063403
 C        -0.844551        -0.158266         0.074560
 C        -2.243099        -0.147052        -0.274065
 C        -2.546254         1.033726        -1.142832
 O        -3.168073        -0.020749         0.883188
 C        -3.347849        -1.216848         1.586426
 C        -3.704002        -0.743008         3.002447
 O        -3.437788        -2.336060         1.123000
 H         2.348792        -1.349328        -0.285671
 H         2.416978         0.454667        -0.349027
 H         2.143943        -0.355908         1.251101
 H        -2.457903        -1.019637        -1.004453
 H        -2.729535         2.027558        -0.600836
 H        -1.685254         1.348941        -1.700901
 H        -3.341518         0.801333        -1.909297
 H        -4.111691        -1.546758         3.619268
 H        -2.798648        -0.300797         3.452039
 H        -4.567017        -0.061728         2.833910
