19
Iteration:  1097charge 0 multiplicity 1
 C         1.796134         0.212369         0.276191
 C         0.379731         0.062794        -0.047610
 C        -0.827594        -0.147266        -0.048959
 C        -2.311966        -0.256104        -0.247501
 C        -2.940147         0.904770        -1.173625
 O        -2.886807        -0.179348         1.055631
 C        -3.259993        -1.340621         1.575338
 C        -3.775934        -1.066982         2.990942
 O        -3.198705        -2.384638         0.959897
 H         2.119076        -0.563132         0.975981
 H         2.381864         0.099278        -0.652404
 H         2.097278         1.265483         0.784582
 H        -2.645863        -1.213530        -0.783489
 H        -2.309370         1.861001        -1.241175
 H        -3.012850         0.463787        -2.203970
 H        -3.959438         1.342622        -0.903843
 H        -3.753415        -1.840388         3.712514
 H        -3.471120        -0.169818         3.487230
 H        -4.888926        -1.000876         2.993691
