19
Iteration:  3137
 C         1.588807        -0.883553         0.436083
 C         0.302101        -0.464512        -0.045899
 C        -0.860659        -0.195512        -0.262105
 C        -2.331913        -0.070542        -0.492114
 C        -2.751218         1.220574        -1.238100
 O        -3.020498        -0.010486         0.833344
 C        -3.208949        -1.029140         1.642963
 C        -4.088477        -0.650369         2.855929
 O        -2.706690        -2.161945         1.507150
 H         1.431232        -1.208477         1.429332
 H         2.095390        -1.680851        -0.139740
 H         2.239775         0.043205         0.705450
 H        -2.477148        -0.999879        -1.061758
 H        -3.768733         1.136290        -1.487012
 H        -2.598370         2.029117        -0.538468
 H        -2.268756         1.509176        -2.199441
 H        -3.489377         0.221683         3.242387
 H        -5.085720        -0.350460         2.533939
 H        -4.316870        -1.403604         3.626419
