19
Iteration:  4043
 C         1.446876        -0.844411         0.398775
 C         0.016342        -0.793126         0.142807
 C        -1.075845        -0.423336        -0.241157
 C        -2.296933         0.068110        -0.531851
 C        -2.454332         1.527888        -0.973962
 O        -3.110605         0.062268         0.814617
 C        -3.208464        -1.045815         1.541632
 C        -3.264986        -0.730535         3.068499
 O        -3.213065        -2.197140         1.097434
 H         1.813345        -1.811456        -0.184314
 H         1.873465         0.086733        -0.123122
 H         1.876596        -0.800749         1.441078
 H        -3.020763        -0.585644        -1.156345
 H        -3.436708         1.879148        -0.627009
 H        -1.628770         2.048937        -0.604103
 H        -2.426262         1.671501        -2.076936
 H        -2.391038        -0.056983         3.254587
 H        -4.202683        -0.105212         3.231577
 H        -3.340116        -1.622317         3.703321
