19
Iteration:  2566
 C         1.834640        -0.157044         0.204457
 C         0.419754        -0.350365         0.082621
 C        -0.789100        -0.287246        -0.143840
 C        -2.255316        -0.227516        -0.246750
 C        -2.640142         0.821945        -1.283202
 O        -2.628948        -0.006335         1.195777
 C        -3.465873        -1.110215         1.646023
 C        -3.903982        -0.835255         3.006038
 O        -3.620171        -2.109837         0.934793
 H         2.228059        -0.640724        -0.808489
 H         2.026003         0.882587         0.243020
 H         2.438413        -0.636574         0.902538
 H        -2.735332        -1.155360        -0.630234
 H        -1.917599         1.614213        -1.369606
 H        -2.747805         0.491672        -2.325384
 H        -3.630634         1.225739        -0.934132
 H        -3.126174        -1.288163         3.637675
 H        -4.189615         0.195303         3.266786
 H        -4.856374        -1.419905         3.068996
