19
Iteration:  4397
 C         1.957571        -0.644277        -0.472041
 C         0.568679        -0.655269        -0.141806
 C        -0.684712        -0.539030        -0.111564
 C        -2.129278        -0.198993        -0.156555
 C        -2.464723         1.079522        -0.810575
 O        -2.758168         0.044836         1.193329
 C        -3.541157        -0.978232         1.665241
 C        -4.023303        -0.502002         3.016125
 O        -3.903966        -1.980289         1.160553
 H         2.526552        -0.955600         0.367700
 H         2.306562        -1.365214        -1.203223
 H         2.433522         0.275516        -0.830929
 H        -2.667977        -1.100252        -0.639247
 H        -3.559699         1.284501        -0.642030
 H        -1.734337         1.758887        -0.324717
 H        -2.325670         1.097342        -1.868876
 H        -4.147122        -1.373756         3.684795
 H        -3.512836         0.371164         3.467554
 H        -5.030733        -0.105938         2.790475
