19
Iteration:    44charge 0 multiplicity 1
 C         1.862131         0.713468         0.231315
 C         0.481415         0.299545        -0.080993
 C        -0.712694         0.141028        -0.201802
 C        -2.135192        -0.298561        -0.212689
 C        -3.141595         0.634333        -0.963244
 O        -2.591811        -0.397106         1.185745
 C        -3.342482        -1.469883         1.557244
 C        -3.914267        -1.365708         3.023014
 O        -3.517222        -2.331194         0.744787
 H         2.104276         0.248472         1.229794
 H         2.583608         0.407604        -0.509914
 H         1.865897         1.689557         0.338748
 H        -2.070915        -1.277806        -0.697243
 H        -3.335454         1.335873        -0.181584
 H        -2.700271         1.104218        -1.795003
 H        -4.000357         0.046106        -1.226025
 H        -4.766930        -2.022961         3.176486
 H        -3.052397        -1.755964         3.581564
 H        -4.138769        -0.321647         3.266994
