19
Iteration:   642charge 0 multiplicity 1
 C         1.886380         0.513371         0.201919
 C         0.495217         0.333635        -0.161550
 C        -0.701473         0.058081        -0.082819
 C        -2.088438        -0.330623        -0.236433
 C        -3.186494         0.458326        -1.057286
 O        -2.575451        -0.306624         1.202859
 C        -3.426806        -1.336540         1.569988
 C        -3.858346        -1.190888         3.074790
 O        -3.571060        -2.264177         0.793858
 H         2.437116        -0.354303        -0.000924
 H         2.488925         1.363186        -0.305723
 H         2.031092         0.678887         1.259181
 H        -2.056598        -1.449306        -0.474973
 H        -3.429571         1.389338        -0.579234
 H        -2.777083         0.815107        -2.069639
 H        -3.997250        -0.242364        -1.207717
 H        -4.918878        -1.121357         3.140167
 H        -3.509485        -2.067397         3.522112
 H        -3.455487        -0.284569         3.377089
