19
Iteration:  1212charge 0 multiplicity 1
 C         1.578209        -0.299509         0.385876
 C         0.208036        -0.084213         0.069962
 C        -0.984026        -0.014426        -0.067354
 C        -2.370176        -0.105562        -0.497127
 C        -2.974676         1.142642        -1.106683
 O        -3.281275        -0.254938         0.696514
 C        -3.089114        -1.250991         1.603457
 C        -3.737765        -1.040352         3.012704
 O        -2.484357        -2.216112         1.242769
 H         1.967928        -1.343956         0.004353
 H         2.308578         0.491025         0.080202
 H         1.705105        -0.401072         1.398996
 H        -2.512963        -0.992326        -1.060330
 H        -3.284737         1.772065        -0.344085
 H        -2.319079         1.648923        -1.895365
 H        -3.846985         0.859644        -1.575628
 H        -3.347638        -0.061867         3.399446
 H        -4.817845        -1.080710         2.815000
 H        -3.251849        -1.867846         3.650468
