19
Iteration:   660
 C         1.879531         0.538547         0.186147
 C         0.474937         0.360376        -0.147081
 C        -0.725638         0.056799        -0.203443
 C        -2.117070        -0.384545        -0.088123
 C        -3.105239         0.331460        -0.993908
 O        -2.523826        -0.263385         1.308084
 C        -3.313825        -1.350450         1.549062
 C        -3.842566        -1.182826         2.940614
 O        -3.694033        -2.170769         0.722787
 H         2.504287        -0.399795        -0.233739
 H         2.171340         1.517733        -0.125091
 H         1.914118         0.477330         1.284324
 H        -2.188329        -1.447652        -0.286806
 H        -3.466906         1.239025        -0.504658
 H        -2.590444         0.557272        -1.925747
 H        -4.016014        -0.307391        -1.082713
 H        -4.966045        -1.488305         2.956872
 H        -3.162240        -1.900882         3.594631
 H        -3.804605        -0.068546         3.219735
