19
Iteration:    52
 C         1.796509         0.635505         0.229579
 C         0.449877         0.382672        -0.061288
 C        -0.730798         0.101856        -0.180144
 C        -2.106853        -0.309127        -0.200020
 C        -3.129260         0.627415        -0.964001
 O        -2.617669        -0.321792         1.188666
 C        -3.312252        -1.461675         1.545209
 C        -3.865443        -1.343931         2.900915
 O        -3.486564        -2.400287         0.769132
 H         2.056453        -0.049902         1.191226
 H         2.583900         0.394045        -0.481449
 H         1.908279         1.750643         0.505404
 H        -2.194530        -1.372341        -0.537678
 H        -3.409356         1.334473        -0.087687
 H        -2.768739         1.132219        -1.794100
 H        -4.173900         0.306146        -1.099687
 H        -4.742654        -1.979972         3.197166
 H        -2.974774        -1.594508         3.533226
 H        -3.925385        -0.309838         3.308794
