19
Iteration:  3421charge 0 multiplicity 1
 C         1.933677        -0.609045        -0.065242
 C         0.447327        -0.544342         0.037889
 C        -0.766502        -0.239663         0.071612
 C        -2.254567        -0.155597        -0.189142
 C        -2.532539         0.816661        -1.330039
 O        -3.016231         0.137805         1.022109
 C        -3.504966        -0.967880         1.634743
 C        -4.163748        -0.557728         2.895294
 O        -3.233543        -2.131321         1.315019
 H         2.282702        -1.513245        -0.545052
 H         2.087883         0.207807        -0.788838
 H         2.445305        -0.687078         0.867933
 H        -2.338206        -1.231336        -0.393078
 H        -3.515476         0.786698        -1.731642
 H        -2.264551         1.830770        -0.873934
 H        -1.835559         0.546333        -2.133227
 H        -4.953103         0.160792         2.825027
 H        -4.528028        -1.358618         3.546504
 H        -3.389515        -0.086898         3.503858
