19
Iteration:  1116
 C         1.754294         0.136151         0.342629
 C         0.372514        -0.004157        -0.091199
 C        -0.836302        -0.194964        -0.191518
 C        -2.277858        -0.169193        -0.331272
 C        -2.919129         0.869012        -1.143661
 O        -3.008385        -0.033019         1.049396
 C        -3.274292        -1.290443         1.595031
 C        -3.820600        -1.160687         2.997938
 O        -3.042066        -2.340143         1.028076
 H         2.053186        -0.663070         0.911270
 H         2.620208         0.303724        -0.490706
 H         1.951543         1.007821         1.048915
 H        -2.598381        -1.198848        -0.676206
 H        -2.537335         1.846540        -0.849611
 H        -3.022476         0.677961        -2.314997
 H        -3.968879         0.881449        -0.839352
 H        -3.250400        -1.878470         3.622246
 H        -3.603536        -0.117114         3.300584
 H        -4.909159        -1.461072         3.223340
