19
Iteration:  1481
 C         1.771892         0.128127         0.042594
 C         0.341723         0.013786         0.049444
 C        -0.796206        -0.379528        -0.055762
 C        -2.219009        -0.286770        -0.256688
 C        -2.691885         0.899682        -1.108672
 O        -2.914649        -0.071851         1.018833
 C        -3.394323        -1.190387         1.615911
 C        -3.918048        -1.067917         3.064935
 O        -3.266110        -2.220368         1.031064
 H         2.204152         1.024854         0.136124
 H         2.209574        -0.560959         0.804866
 H         2.025850        -0.285116        -1.007882
 H        -2.496363        -1.298632        -0.673906
 H        -2.462011         1.792670        -0.589096
 H        -2.112962         0.983585        -2.051428
 H        -3.692424         0.716429        -1.303618
 H        -2.979457        -1.226183         3.600832
 H        -4.535646        -0.194710         3.237290
 H        -4.495704        -2.018924         3.148805
