19
Iteration:  3759
 C         1.907247         0.327297        -0.597450
 C         0.643958        -0.310015        -0.159346
 C        -0.449846        -0.727685         0.112694
 C        -1.888446        -0.771855         0.079240
 C        -2.170670         0.303808        -0.915442
 O        -2.413628        -0.699872         1.515812
 C        -3.810333        -0.848048         1.566567
 C        -4.199554        -0.610164         3.080364
 O        -4.522873        -1.098315         0.687057
 H         2.279608         0.021468        -1.528820
 H         1.819603         1.389453        -0.445967
 H         2.589762         0.098981         0.168778
 H        -2.388024        -1.719240        -0.324453
 H        -3.348267         0.728754        -0.907381
 H        -1.738918         1.325470        -0.713374
 H        -1.815676        -0.041305        -1.899522
 H        -5.295487        -0.594711         3.310876
 H        -3.897092        -1.393863         3.784724
 H        -3.724169         0.256715         3.635046
