19
Iteration:  1595
 C         1.950614         0.323814        -0.021538
 C         0.472915         0.138732        -0.186558
 C        -0.715569        -0.089684        -0.113088
 C        -2.079744        -0.506517        -0.122927
 C        -2.793927         0.550811        -0.873333
 O        -2.450849        -0.476754         1.287214
 C        -3.558681        -1.210217         1.554694
 C        -3.950524        -0.825315         2.939149
 O        -3.909148        -2.093153         0.810615
 H         2.032218         0.662736         1.090005
 H         2.513889        -0.553221        -0.083134
 H         2.383882         1.173702        -0.588636
 H        -2.289623        -1.437166        -0.632715
 H        -2.538823         1.593222        -0.453277
 H        -2.351932         0.658137        -1.821460
 H        -3.908482         0.232614        -0.947580
 H        -3.804197         0.201077         3.222187
 H        -4.976489        -0.993668         3.216530
 H        -3.302213        -1.349912         3.628859
