19
Iteration:  1453charge 0 multiplicity 1
 C         1.821780        -0.085368         0.103057
 C         0.349344        -0.014770         0.010427
 C        -0.873971        -0.061227        -0.089350
 C        -2.318069        -0.106760        -0.301166
 C        -2.665936         0.957821        -1.277482
 O        -3.062791         0.001938         1.033280
 C        -3.307445        -1.239913         1.691994
 C        -3.948731        -1.168096         3.025129
 O        -3.103788        -2.392852         1.183169
 H         2.328545         1.014532        -0.099926
 H         2.190815        -0.548156         1.004572
 H         2.109223        -0.655160        -0.810499
 H        -2.486182        -1.130078        -0.650863
 H        -2.248937         1.915673        -0.873409
 H        -2.064246         0.616511        -2.220609
 H        -3.800188         0.934719        -1.449962
 H        -3.227537        -1.682459         3.722625
 H        -4.124479        -0.104106         3.328711
 H        -4.794130        -1.824352         2.961564
