19
Iteration:   107
 C         1.788719         0.434667         0.303819
 C         0.297742         0.287396         0.133918
 C        -0.894702         0.255818        -0.171293
 C        -2.259775        -0.122654        -0.410403
 C        -3.021738         0.846290        -1.204056
 O        -2.833995        -0.295299         1.095294
 C        -3.245054        -1.507992         1.587281
 C        -3.723991        -1.377604         3.008101
 O        -3.193738        -2.563693         0.972718
 H         2.421231        -0.557041         0.537978
 H         2.206355         0.836501        -0.628104
 H         2.166705         1.112548         1.134238
 H        -2.431225        -1.132883        -0.817605
 H        -2.632566         1.911957        -1.130332
 H        -3.018916         0.774629        -2.242293
 H        -4.090909         0.858913        -0.906720
 H        -4.607295        -2.029756         3.176876
 H        -3.027940        -1.823833         3.765568
 H        -3.927008        -0.349898         3.368811
