19
Iteration:   217charge 0 multiplicity 1
 C         1.508152         0.261293         0.381590
 C         0.118491        -0.063963         0.112079
 C        -1.016389        -0.038000        -0.293331
 C        -2.419922        -0.077169        -0.500989
 C        -2.881142         1.233116        -1.104658
 O        -3.231215        -0.282985         0.840755
 C        -3.031721        -1.462498         1.613859
 C        -3.741769        -1.282901         3.013424
 O        -2.448337        -2.462356         1.246224
 H         2.119956        -0.058050        -0.441444
 H         1.695090         1.316273         0.619606
 H         1.740859        -0.324235         1.234331
 H        -2.632999        -0.983294        -1.111393
 H        -3.157704         2.071951        -0.407708
 H        -2.146160         1.425946        -1.821268
 H        -3.850926         0.920909        -1.591557
 H        -4.430921        -2.107117         3.084276
 H        -2.846737        -1.267820         3.652744
 H        -4.126828        -0.265557         3.042340
