19
Iteration:  2457
 C         1.748699        -0.486539         0.161821
 C         0.315006        -0.282075         0.252079
 C        -0.846990        -0.146490        -0.060142
 C        -2.240835        -0.074882        -0.461994
 C        -2.677453         1.181665        -1.105953
 O        -2.987510        -0.059038         0.842634
 C        -3.398803        -1.253465         1.575828
 C        -3.772609        -0.697295         2.953510
 O        -3.246676        -2.392371         1.241918
 H         2.038516        -1.654911         0.000688
 H         2.177525         0.140230        -0.614246
 H         2.140245        -0.142719         1.195605
 H        -2.443031        -0.925280        -1.266064
 H        -2.908068         2.021751        -0.455239
 H        -1.912370         1.378989        -1.908232
 H        -3.659067         1.040455        -1.689457
 H        -4.533727        -1.382729         3.316796
 H        -2.864828        -0.922980         3.566178
 H        -3.913813         0.430402         3.042150
