19
Iteration:  4820
 C         2.070266        -0.646442        -0.547539
 C         0.553622        -0.611262        -0.324299
 C        -0.645769        -0.449522        -0.139153
 C        -2.054900        -0.278162        -0.009062
 C        -2.445577         0.908775        -1.101975
 O        -2.591460         0.021326         1.460374
 C        -3.626946        -0.878324         1.789957
 C        -4.154509        -0.735459         3.202980
 O        -4.077977        -1.642888         1.004616
 H         2.362409         0.063733        -1.344617
 H         2.667883        -0.516962         0.367878
 H         2.334896        -1.647706        -0.820709
 H        -2.666365        -1.221891        -0.140295
 H        -3.545619         1.225843        -0.966375
 H        -1.616740         1.708459        -1.101657
 H        -2.280557         0.478346        -2.095524
 H        -3.911134        -1.681627         3.649129
 H        -3.855562         0.214893         3.606821
 H        -5.241227        -0.714709         3.288312
