19
Iteration:  3520
 C         1.825394        -0.109332         0.331358
 C         0.534133        -0.462119        -0.189307
 C        -0.678428        -0.619640        -0.261994
 C        -2.191501        -0.472546        -0.385548
 C        -2.631188         0.755293        -1.182453
 O        -2.530647        -0.206344         1.011699
 C        -3.423276        -0.954101         1.694746
 C        -3.731403        -0.465055         3.049648
 O        -4.124023        -1.865495         1.179478
 H         2.697334        -0.569387        -0.211322
 H         1.805330         1.054458         0.099122
 H         1.907881        -0.250820         1.450722
 H        -2.551278        -1.480897        -0.638604
 H        -3.752279         0.833005        -1.137906
 H        -2.212129         1.729492        -0.911661
 H        -2.361304         0.451523        -2.172186
 H        -4.623755         0.165162         2.916189
 H        -4.031596        -1.309484         3.678047
 H        -2.954533         0.108440         3.505969
