19
Iteration:  2974
 C         2.008666        -0.025640         0.105822
 C         0.529495        -0.227228        -0.024053
 C        -0.658210        -0.544003        -0.093592
 C        -2.099285        -0.515070        -0.298097
 C        -2.484920         0.699206        -1.104308
 O        -2.589090        -0.259281         1.074817
 C        -3.693212        -1.013905         1.612578
 C        -3.785110        -0.635849         3.083782
 O        -4.273175        -1.805438         0.949034
 H         2.153618         0.594434         0.964802
 H         2.445882        -0.973390         0.242576
 H         2.450847         0.652775        -0.525451
 H        -2.577867        -1.456135        -0.613103
 H        -3.446255         0.566601        -1.484674
 H        -2.233542         1.554153        -0.461155
 H        -1.708447         0.662960        -1.931660
 H        -2.799109        -1.047600         3.445500
 H        -3.788821         0.432403         3.349588
 H        -4.632193        -1.142437         3.558730
