19
Iteration:  4169charge 0 multiplicity 1
 C         1.128133        -1.514789         0.440830
 C        -0.125560        -0.803846         0.058229
 C        -0.956727        -0.009319        -0.279971
 C        -2.326833         0.226979        -0.505074
 C        -2.886445         1.482693        -1.210245
 O        -2.981654         0.238826         0.979476
 C        -2.862971        -0.952332         1.693080
 C        -3.702860        -0.871008         2.929047
 O        -2.383732        -1.972603         1.164380
 H         0.853582        -2.551680         0.277350
 H         1.972351        -1.329469        -0.244781
 H         1.446153        -1.546557         1.551251
 H        -2.730329        -0.735139        -0.809218
 H        -4.041683         1.434025        -1.362789
 H        -2.858324         2.210319        -0.385165
 H        -2.303676         1.766357        -2.082120
 H        -4.349974        -0.038538         2.702583
 H        -4.253912        -1.806519         3.000918
 H        -3.152437        -0.677610         3.853967
