19
Iteration:  2631
 C         1.997264        -0.187291         0.265678
 C         0.564039        -0.107249        -0.153747
 C        -0.648543        -0.177994        -0.289057
 C        -2.095117        -0.300499        -0.285260
 C        -2.775314         0.782247        -0.977155
 O        -2.496855        -0.386572         1.155056
 C        -3.516695        -1.158975         1.581949
 C        -4.042552        -0.545643         2.953941
 O        -3.950556        -2.114706         1.008857
 H         2.586582         0.044578        -0.743944
 H         2.278486         0.625251         0.902614
 H         2.209805        -1.132594         0.686928
 H        -2.407623        -1.281033        -0.677530
 H        -2.642359         1.791308        -0.515270
 H        -2.504484         0.820397        -2.061974
 H        -3.852780         0.427839        -0.929482
 H        -3.317509         0.201303         3.379063
 H        -5.039723        -0.033702         2.880356
 H        -4.047340        -1.447331         3.614938
