19
Iteration:  2613
 C         2.009746        -0.138838         0.262584
 C         0.599102        -0.189190        -0.142723
 C        -0.622639        -0.270640        -0.285150
 C        -2.081262        -0.394231        -0.259984
 C        -2.883421         0.815428        -0.961798
 O        -2.597082        -0.154671         1.117242
 C        -3.483689        -1.130741         1.544079
 C        -3.976670        -0.695001         2.925091
 O        -3.916153        -2.120038         1.049062
 H         2.738152        -0.245705        -0.596522
 H         2.152950         0.722603         0.945799
 H         2.272171        -1.036766         0.911013
 H        -2.299415        -1.420218        -0.637953
 H        -2.244229         1.787095        -0.869293
 H        -2.885840         0.887646        -2.011820
 H        -3.880166         0.909559        -0.639201
 H        -3.163683        -0.088555         3.374686
 H        -4.803443        -0.027054         2.678876
 H        -4.509063        -1.401127         3.511966
