19
Iteration:  3156
 C         1.526492        -0.854848         0.463675
 C         0.239815        -0.523959        -0.010265
 C        -0.945949        -0.325128        -0.259927
 C        -2.377128        -0.049062        -0.457452
 C        -2.702342         1.263182        -1.064839
 O        -3.156017        -0.027247         0.747975
 C        -3.144027        -1.053817         1.613392
 C        -4.065399        -0.549244         2.750751
 O        -2.494253        -2.131877         1.534011
 H         1.544629        -1.481307         1.374872
 H         1.976130        -1.462467        -0.366536
 H         2.156801         0.005895         0.531364
 H        -2.738905        -0.912412        -1.019205
 H        -3.661840         1.175395        -1.543293
 H        -2.341204         2.170331        -0.509238
 H        -2.003416         1.288744        -1.957528
 H        -3.659119         0.367917         3.142000
 H        -5.036282        -0.516737         2.273263
 H        -4.287477        -1.314154         3.462816
