19
Iteration:   379charge 0 multiplicity 1
 C         1.619092        -0.176526         0.274192
 C         0.177135         0.142427         0.122060
 C        -1.033585         0.061194        -0.070602
 C        -2.479449        -0.062116        -0.436635
 C        -3.135793         0.983078        -1.152290
 O        -3.167325        -0.106147         0.890771
 C        -2.961079        -1.299566         1.614092
 C        -3.919989        -1.389662         2.758965
 O        -2.197495        -2.205252         1.320478
 H         2.229883         0.621258         0.573350
 H         1.662109        -0.978769         1.070530
 H         2.152914        -0.682731        -0.658339
 H        -2.612327        -1.059388        -0.756316
 H        -3.387614         1.813862        -0.391174
 H        -2.553665         1.389671        -1.972199
 H        -4.216261         0.743284        -1.398942
 H        -3.523929        -1.721142         3.685869
 H        -4.457299        -0.455885         2.854643
 H        -4.716223        -2.122798         2.616835
