19
Iteration:  1659
 C         2.169031         0.431161        -0.237191
 C         0.703577         0.163473        -0.075486
 C        -0.493592        -0.059987        -0.047630
 C        -1.950292        -0.585155        -0.051068
 C        -2.873665         0.207842        -0.977288
 O        -2.462359        -0.389954         1.375238
 C        -3.668559        -1.061456         1.558570
 C        -4.048178        -1.173707         3.050025
 O        -4.284549        -1.686728         0.749797
 H         2.617819         0.240299         0.731885
 H         2.694707        -0.044651        -1.004254
 H         2.373130         1.594935        -0.363032
 H        -1.931849        -1.714427        -0.140083
 H        -2.992730         1.256878        -0.537803
 H        -2.552726         0.215921        -1.973125
 H        -3.939612        -0.197366        -1.004502
 H        -4.967138        -0.552736         3.093011
 H        -4.298746        -2.214120         3.262307
 H        -3.218852        -0.751471         3.615799
