19
Iteration:  2288
 C         1.580053        -0.778617         0.308692
 C         0.226415        -0.345124        -0.054571
 C        -0.972007        -0.069908         0.006645
 C        -2.302249         0.041975        -0.478491
 C        -2.708541         1.333861        -1.028892
 O        -3.412676        -0.198045         0.618697
 C        -3.232807        -1.217972         1.596755
 C        -3.864038        -0.840199         2.872995
 O        -2.460927        -2.122380         1.491766
 H         1.617371        -0.917337         1.469448
 H         1.941232        -1.729032        -0.204202
 H         2.321102        -0.037406         0.052191
 H        -2.449126        -0.783704        -1.244726
 H        -2.662748         2.289210        -0.397135
 H        -2.008194         1.477187        -1.791765
 H        -3.635407         1.363906        -1.516410
 H        -4.136323         0.215336         2.805330
 H        -4.730295        -1.439146         3.118820
 H        -3.091207        -1.141943         3.581798
