19
Iteration:  2184
 C         1.713569        -0.515981         0.388984
 C         0.279865        -0.485479        -0.154271
 C        -0.951107        -0.289944        -0.261277
 C        -2.381823        -0.030031        -0.480976
 C        -2.639761         1.243669        -1.157227
 O        -3.232725         0.013161         0.902170
 C        -3.247967        -1.055392         1.664459
 C        -4.042947        -1.049160         2.986704
 O        -2.618466        -2.088804         1.372609
 H         1.835235         0.230399         1.164466
 H         1.845045        -1.507159         0.794853
 H         2.513182        -0.292850        -0.491798
 H        -2.871092        -0.890428        -0.858433
 H        -1.947514         2.016217        -0.813903
 H        -2.334601         1.147740        -2.283643
 H        -3.708147         1.474822        -1.240307
 H        -3.464763        -0.358720         3.691586
 H        -5.068826        -0.709880         2.732904
 H        -4.023664        -2.048270         3.390382
