19
Iteration:  4844
 C         1.900271        -0.659769        -0.576275
 C         0.522779        -0.547456        -0.143119
 C        -0.692450        -0.521539        -0.039565
 C        -2.059054        -0.205474        -0.118341
 C        -2.403048         1.023449        -0.966320
 O        -2.587226        -0.083254         1.294078
 C        -3.561940        -0.883517         1.732320
 C        -4.092069        -0.581845         3.201941
 O        -4.002209        -1.839784         1.016706
 H         2.068724        -0.097057        -1.523512
 H         2.662086        -0.381436         0.202013
 H         2.067911        -1.729261        -0.685557
 H        -2.736932        -1.072022        -0.442262
 H        -3.392523         1.390218        -0.796459
 H        -1.601950         1.746324        -0.955873
 H        -2.308824         0.598405        -2.009626
 H        -4.120118        -1.501590         3.713486
 H        -3.555759         0.270193         3.608163
 H        -5.131022        -0.274536         3.162012
