19
Iteration:  2208charge 0 multiplicity 1
 C         1.653623        -0.574454         0.284116
 C         0.153902        -0.490011         0.056920
 C        -1.031877        -0.309489        -0.066616
 C        -2.372513        -0.048448        -0.409942
 C        -2.678367         1.329203        -1.087451
 O        -3.267800        -0.050359         0.747198
 C        -3.100082        -1.112595         1.595462
 C        -3.987362        -0.842784         2.893614
 O        -2.500016        -2.153036         1.356502
 H         1.920861        -0.039538         1.135615
 H         1.867624        -1.640915         0.434054
 H         2.273965        -0.144162        -0.646160
 H        -2.717513        -0.909034        -1.017591
 H        -2.351613         2.140052        -0.516556
 H        -2.186948         1.436817        -2.096870
 H        -3.784930         1.247143        -1.314816
 H        -3.698690         0.050250         3.449728
 H        -5.024501        -0.908865         2.541408
 H        -3.744540        -1.735686         3.499879
