19
Iteration:  3836charge 0 multiplicity 1
 C         2.219847        -0.121798        -0.450211
 C         0.741050        -0.329809        -0.304113
 C        -0.474426        -0.350756         0.048555
 C        -1.989355        -0.622190         0.027109
 C        -2.644721         0.617909        -0.667429
 O        -2.417510        -0.530317         1.405764
 C        -3.779954        -0.968709         1.596159
 C        -4.207385        -0.456798         2.946168
 O        -4.329774        -1.566596         0.755146
 H         2.439605        -0.689667        -1.345465
 H         2.428514         0.942913        -0.563337
 H         2.664383        -0.527094         0.403487
 H        -2.368480        -1.578784        -0.443453
 H        -3.766206         0.353892        -0.953894
 H        -2.629189         1.526830        -0.081303
 H        -2.239502         0.920093        -1.665873
 H        -5.255715        -0.752775         3.110549
 H        -3.638570        -0.848383         3.797981
 H        -4.163414         0.646265         3.134394
