19
Iteration:  3246charge 0 multiplicity 1
 C         1.460356        -0.861300         0.358299
 C         0.142428        -0.617887        -0.121779
 C        -1.066597        -0.503351        -0.160962
 C        -2.394635        -0.160790        -0.427214
 C        -2.353155         1.333204        -1.004747
 O        -3.372938        -0.115369         0.627691
 C        -3.147050        -0.926389         1.630650
 C        -4.210955        -0.792787         2.739899
 O        -2.232745        -1.712645         1.667152
 H         1.501521        -1.848882         0.709925
 H         2.113065        -0.896914        -0.551182
 H         1.977992        -0.016619         0.920856
 H        -2.824670        -0.715882        -1.263777
 H        -3.370057         1.545539        -1.298016
 H        -1.836657         2.162021        -0.321935
 H        -1.701019         1.297187        -1.984573
 H        -4.500958         0.257070         2.942848
 H        -5.126312        -1.352169         2.582895
 H        -3.786973        -1.165525         3.699884
