19
Iteration:  2907
 C         2.003555         0.224505        -0.060161
 C         0.660537        -0.263828        -0.195073
 C        -0.521214        -0.517421        -0.077229
 C        -2.003515        -0.683263        -0.100596
 C        -2.637362         0.402354        -0.880541
 O        -2.350535        -0.579924         1.363383
 C        -3.620978        -0.926516         1.562354
 C        -4.042873        -0.657554         3.036319
 O        -4.407450        -1.341192         0.646388
 H         1.876636         1.173456         0.735615
 H         2.531870        -0.528502         0.491449
 H         2.461241         0.569860        -0.977641
 H        -2.334054        -1.661221        -0.501267
 H        -3.623702         0.555056        -0.526775
 H        -1.972759         1.323901        -0.889983
 H        -2.750898         0.025073        -1.924968
 H        -3.701809        -1.576269         3.563906
 H        -3.369928         0.079620         3.554865
 H        -5.154727        -0.499217         3.208407
