19
Iteration:  2262
 C         1.587358        -0.799660         0.219778
 C         0.188814        -0.237452         0.235387
 C        -1.021024        -0.160514        -0.009632
 C        -2.342147        -0.056910        -0.524739
 C        -2.714855         1.415027        -1.024249
 O        -3.389769        -0.267847         0.538172
 C        -3.139831        -1.123812         1.644575
 C        -3.819399        -0.807804         2.896288
 O        -2.496438        -2.151507         1.480336
 H         2.025729        -0.819569         1.152133
 H         1.674745        -1.777905        -0.271595
 H         2.257068        -0.037612        -0.461628
 H        -2.428382        -0.836451        -1.253333
 H        -2.720240         2.175880        -0.291205
 H        -1.830344         1.754440        -1.690054
 H        -3.589098         1.494544        -1.775341
 H        -4.025894         0.252291         2.833681
 H        -4.827863        -1.279656         2.768207
 H        -3.313320        -1.308079         3.768830
