19
Iteration:  4901
 C         2.012381        -0.803169        -0.419083
 C         0.503514        -0.655041        -0.298362
 C        -0.727633        -0.487117        -0.176543
 C        -2.172854        -0.097736        -0.246974
 C        -2.452537         1.309794        -0.828267
 O        -2.757123        -0.093621         1.183904
 C        -3.603771        -0.977271         1.734511
 C        -3.994812        -0.422621         3.068021
 O        -3.830688        -2.123208         1.242631
 H         2.272532        -0.502871        -1.469556
 H         2.344115         0.005970         0.254304
 H         2.386511        -1.806642        -0.115225
 H        -2.701136        -0.998644        -0.709863
 H        -3.416500         1.432271        -1.265778
 H        -2.355867         1.951178         0.009550
 H        -1.676787         1.472300        -1.564125
 H        -4.598247        -1.059152         3.753057
 H        -3.142908        -0.240654         3.709633
 H        -4.587692         0.463447         2.899493
