19
Iteration:   729charge 0 multiplicity 1
 C         1.952812         0.805174         0.002309
 C         0.528791         0.418654        -0.045073
 C        -0.593573        -0.036991        -0.036671
 C        -1.938024        -0.488852        -0.093814
 C        -2.877966         0.321612        -1.017243
 O        -2.448720        -0.494045         1.263402
 C        -3.529024        -1.413945         1.501603
 C        -3.804071        -1.167188         2.984017
 O        -4.239634        -2.074158         0.785798
 H         2.469053         0.790107        -0.991378
 H         1.938985         1.870817         0.462497
 H         2.420150         0.172478         0.621164
 H        -1.955186        -1.524141        -0.552320
 H        -2.806058         1.397604        -0.911499
 H        -2.628266         0.034624        -2.078689
 H        -3.887086         0.086015        -0.775851
 H        -3.895308        -2.068545         3.559514
 H        -2.922851        -0.652094         3.372155
 H        -4.694676        -0.623724         3.282320
