19
Iteration:  4411charge 0 multiplicity 1
 C         2.026422        -0.688606        -0.425180
 C         0.540223        -0.653988        -0.248495
 C        -0.677986        -0.411536        -0.113523
 C        -2.120786        -0.260708        -0.062763
 C        -2.566024         1.045965        -0.845619
 O        -2.597657        -0.058465         1.232243
 C        -3.548017        -0.928429         1.690923
 C        -4.092668        -0.512448         3.041117
 O        -3.933960        -1.869326         1.075185
 H         2.625389        -0.822287         0.538939
 H         2.142627        -1.533132        -1.146688
 H         2.265928         0.371497        -0.821262
 H        -2.667913        -1.249246        -0.500135
 H        -3.675094         1.100059        -0.873769
 H        -2.246636         1.959311        -0.482886
 H        -2.128817         0.941274        -1.852569
 H        -3.939266        -1.380088         3.676622
 H        -3.545368         0.305661         3.484622
 H        -5.161600        -0.268006         2.948401
