19
Iteration:  2021charge 0 multiplicity 1
 C         1.808688        -0.114301         0.043586
 C         0.418256         0.007910         0.100897
 C        -0.806665        -0.222536         0.014865
 C        -2.231324        -0.257030        -0.230117
 C        -2.630095         0.766287        -1.212292
 O        -2.875957        -0.091324         0.990184
 C        -3.358573        -1.183232         1.621964
 C        -3.900480        -0.843263         2.988542
 O        -3.478692        -2.204490         1.073034
 H         2.382870         0.437283        -0.607135
 H         2.223890        -0.057592         1.025108
 H         1.907909        -1.270666        -0.293088
 H        -2.405932        -1.341544        -0.561641
 H        -2.275748         1.767080        -0.819826
 H        -2.052244         0.642474        -2.186709
 H        -3.678628         0.709272        -1.440035
 H        -4.899700        -1.361551         3.209529
 H        -3.216513        -1.182994         3.806753
 H        -4.011379         0.209321         3.247340
