19
Iteration:  2913
 C         1.948729         0.259099        -0.031684
 C         0.669908        -0.317054        -0.164470
 C        -0.524303        -0.524048        -0.070567
 C        -1.958204        -0.675963        -0.135396
 C        -2.635492         0.441888        -0.936902
 O        -2.370690        -0.574536         1.343665
 C        -3.636555        -0.947295         1.561410
 C        -4.013330        -0.631167         3.058981
 O        -4.384123        -1.372861         0.682140
 H         1.934146         0.938876         0.699851
 H         2.675840        -0.481493         0.443325
 H         2.485520         0.425740        -1.016648
 H        -2.461411        -1.611354        -0.413572
 H        -3.671670         0.751532        -0.526435
 H        -2.159867         1.388950        -0.925636
 H        -2.758649         0.233418        -1.985510
 H        -3.731981        -1.609885         3.470448
 H        -3.480988         0.166667         3.553951
 H        -5.069581        -0.647423         3.223407
