19
Iteration:   389charge 0 multiplicity 1
 C         1.624782        -0.149623         0.289182
 C         0.160042         0.088303         0.106860
 C        -1.039347         0.157660        -0.132130
 C        -2.422416        -0.085711        -0.374764
 C        -3.169730         1.067097        -1.188569
 O        -3.156600        -0.088497         0.902074
 C        -2.921667        -1.355533         1.622779
 C        -3.961702        -1.359986         2.770921
 O        -2.236752        -2.341003         1.392601
 H         2.168436         0.735595         0.634326
 H         1.780813        -1.046084         0.956319
 H         1.868500        -0.357800        -0.821469
 H        -2.579663        -0.924447        -1.067196
 H        -2.959181         2.009438        -0.558003
 H        -2.593668         1.267810        -2.084261
 H        -4.146592         0.645358        -1.560027
 H        -3.425571        -1.476862         3.700424
 H        -4.536564        -0.427297         2.802737
 H        -4.589286        -2.235567         2.481880
