19
Iteration:  2175
 C         1.708999        -0.485392         0.385459
 C         0.241707        -0.438146        -0.164065
 C        -0.946971        -0.271098        -0.338538
 C        -2.372975        -0.102748        -0.433442
 C        -2.599638         1.213869        -1.207894
 O        -3.190005         0.118325         0.993692
 C        -3.270160        -1.124178         1.616009
 C        -4.067568        -1.026500         2.945914
 O        -2.637938        -2.116296         1.383248
 H         1.852438         0.228536         1.100457
 H         1.801707        -1.450349         0.886815
 H         2.664989        -0.444981        -0.382781
 H        -2.815731        -0.977550        -0.953397
 H        -2.073779         1.983007        -0.785409
 H        -2.347761         0.893421        -2.271102
 H        -3.632444         1.581018        -0.966706
 H        -3.466579        -0.608822         3.772006
 H        -5.109125        -0.657959         3.057886
 H        -4.033710        -2.099229         3.186774
