19
Iteration:  4351charge 0 multiplicity 1
 C         1.723613        -0.676426        -0.375130
 C         0.313658        -0.606335        -0.221986
 C        -0.895435        -0.533472        -0.061426
 C        -2.235888        -0.124105        -0.220515
 C        -2.010968         1.258969        -0.934151
 O        -2.902694         0.085356         1.094641
 C        -3.464669        -1.045446         1.752931
 C        -4.041738        -0.534505         2.992174
 O        -3.608841        -2.211081         1.333423
 H         2.326177        -1.223632         0.328723
 H         2.077765        -1.054342        -1.322676
 H         2.101817         0.319279        -0.491911
 H        -2.916306        -0.788061        -0.704673
 H        -2.950243         1.821077        -0.947918
 H        -1.016180         1.710495        -0.452057
 H        -1.731098         1.086845        -2.007293
 H        -4.612380        -1.331816         3.517856
 H        -3.204541        -0.107535         3.599398
 H        -4.667935         0.365925         2.782910
