19
Iteration:  4983
 C         1.672230        -1.036791        -0.146769
 C         0.265417        -0.745955        -0.116317
 C        -0.868832        -0.391669        -0.217028
 C        -2.297368        -0.008056        -0.233929
 C        -2.631190         1.279647        -0.871002
 O        -2.770927         0.200549         1.116802
 C        -3.197116        -0.945005         1.711814
 C        -3.925025        -0.627171         2.967685
 O        -3.298999        -2.019008         1.114890
 H         1.964674        -1.520880        -1.100451
 H         2.432625        -0.243634         0.085640
 H         1.916157        -1.910550         0.577440
 H        -2.681972        -0.873523        -0.721862
 H        -3.763521         1.339517        -0.691216
 H        -2.144356         2.203845        -0.483977
 H        -2.504414         1.270193        -2.002938
 H        -4.964438        -0.575246         2.636973
 H        -3.859248        -1.506532         3.683862
 H        -3.583833         0.283895         3.498935
