19
Iteration:  4945
 C         1.804359        -0.908752        -0.209292
 C         0.388028        -0.633070        -0.407111
 C        -0.829821        -0.417992        -0.296935
 C        -2.258590        -0.103683        -0.304618
 C        -2.451209         1.327081        -0.912350
 O        -2.613388         0.009052         1.232346
 C        -3.446613        -0.978006         1.784276
 C        -4.124258        -0.532080         3.106971
 O        -3.512309        -2.077087         1.215092
 H         2.287873        -1.115317        -1.184479
 H         2.359468        -0.154440         0.344056
 H         1.706911        -1.778922         0.449026
 H        -3.072414        -0.756005        -0.684379
 H        -3.349440         1.416500        -1.485733
 H        -2.500138         2.084142        -0.160847
 H        -1.588217         1.436638        -1.506826
 H        -5.166815        -0.958942         3.181067
 H        -3.544559        -1.010403         3.879283
 H        -4.195716         0.542668         3.200805
