19
Iteration:  3659charge 0 multiplicity 1
 C         2.117359         0.025860        -0.132894
 C         0.618763        -0.011333        -0.071811
 C        -0.550283        -0.325114         0.011974
 C        -1.886747        -0.765303        -0.156058
 C        -2.657785        -0.054326        -1.245146
 O        -2.443012        -0.567265         1.265573
 C        -3.702581        -0.732992         1.644999
 C        -3.779810        -0.798640         3.152902
 O        -4.651742        -0.963664         0.885547
 H         2.638419        -0.532321        -0.935636
 H         2.482579         1.004649         0.011793
 H         2.421890        -0.502389         0.748594
 H        -2.075052        -1.860397        -0.473160
 H        -3.611175        -0.462729        -1.649500
 H        -2.852187         1.063376        -0.825472
 H        -1.886237         0.094975        -2.084255
 H        -4.761146        -0.365424         3.484121
 H        -3.927954        -1.898387         3.423335
 H        -2.943860        -0.411822         3.756565
