19
Iteration:   641
 C         1.886627         0.520323         0.204510
 C         0.495834         0.328467        -0.156381
 C        -0.695219         0.064224        -0.084340
 C        -2.088261        -0.327792        -0.242069
 C        -3.183456         0.468977        -1.059068
 O        -2.585468        -0.314990         1.193938
 C        -3.422233        -1.339962         1.574256
 C        -3.861292        -1.190880         3.075091
 O        -3.567773        -2.263432         0.804897
 H         2.424840        -0.418339         0.007009
 H         2.472894         1.358239        -0.313803
 H         2.024574         0.672460         1.207548
 H        -2.062137        -1.442569        -0.481607
 H        -3.448302         1.381323        -0.589742
 H        -2.763021         0.809187        -2.069128
 H        -3.996667        -0.247145        -1.184540
 H        -4.952015        -1.091357         3.146365
 H        -3.490312        -2.117764         3.479382
 H        -3.432746        -0.270289         3.384849
