19
Iteration:  1597charge 0 multiplicity 1
 C         1.960571         0.344072        -0.032950
 C         0.472021         0.122937        -0.183693
 C        -0.712198        -0.074691        -0.105114
 C        -2.094783        -0.515706        -0.101628
 C        -2.808685         0.544127        -0.878314
 O        -2.447210        -0.480866         1.287710
 C        -3.549776        -1.216142         1.540412
 C        -3.949029        -0.818600         2.933541
 O        -3.911710        -2.071934         0.804212
 H         2.049985         0.625227         1.130042
 H         2.537471        -0.601480        -0.096864
 H         2.357292         1.122904        -0.564247
 H        -2.277581        -1.431130        -0.592298
 H        -2.549389         1.555622        -0.436377
 H        -2.321587         0.617779        -1.826486
 H        -3.899433         0.198233        -0.952034
 H        -3.802854         0.200264         3.246462
 H        -4.960493        -1.082550         3.205460
 H        -3.309318        -1.341017         3.660276
