19
Iteration:  2453
 C         1.726551        -0.503063         0.188300
 C         0.345037        -0.285173         0.258608
 C        -0.815632        -0.153738        -0.112969
 C        -2.238242        -0.081399        -0.472442
 C        -2.714652         1.203335        -1.102584
 O        -3.004844        -0.046341         0.822490
 C        -3.368307        -1.221179         1.616289
 C        -3.789405        -0.720436         2.923358
 O        -3.233104        -2.386968         1.248047
 H         1.941755        -1.585536         0.094679
 H         2.129402         0.145012        -0.590850
 H         2.113931        -0.150340         1.067406
 H        -2.474533        -0.965646        -1.111639
 H        -2.834119         1.988513        -0.380819
 H        -1.915826         1.288281        -1.870427
 H        -3.663000         1.051111        -1.562594
 H        -4.571191        -1.415469         3.286605
 H        -2.962366        -0.968314         3.618276
 H        -3.801434         0.338931         3.057687
