19
Iteration:  2710
 C         2.168347         0.016034        -0.084133
 C         0.717552        -0.211192        -0.135152
 C        -0.504537        -0.321500        -0.040451
 C        -1.995525        -0.469317        -0.064466
 C        -2.823191         0.474447        -0.960670
 O        -2.517504        -0.301910         1.349316
 C        -3.681432        -1.006381         1.544029
 C        -4.056385        -0.700402         2.993632
 O        -4.202709        -1.760587         0.748700
 H         2.321881         0.862233        -0.883306
 H         2.342969         0.288089         0.920781
 H         2.765507        -0.795116        -0.378543
 H        -2.138818        -1.547543        -0.234151
 H        -3.772701         1.022028        -0.506087
 H        -2.190032         1.297581        -1.218980
 H        -3.136812        -0.001308        -1.859970
 H        -4.540895         0.301879         2.856985
 H        -4.836187        -1.444430         3.220020
 H        -3.293839        -0.701320         3.800804
