19
Iteration:  2030
 C         1.810925        -0.213710         0.095337
 C         0.366009         0.073342         0.008913
 C        -0.810000        -0.144288        -0.007422
 C        -2.230436        -0.340646        -0.245069
 C        -2.608702         0.814181        -1.245481
 O        -2.901720        -0.083965         1.045405
 C        -3.363633        -1.165180         1.645521
 C        -3.912695        -0.794416         3.017787
 O        -3.424314        -2.276417         1.045682
 H         2.337333         0.511352        -0.499151
 H         2.277469        -0.178327         1.073689
 H         2.009426        -1.298722        -0.309325
 H        -2.547585        -1.340502        -0.473398
 H        -2.365840         1.724593        -0.554980
 H        -1.913738         0.723405        -2.052163
 H        -3.634731         0.839277        -1.538768
 H        -4.732158        -1.513482         3.263056
 H        -3.165254        -1.062681         3.764259
 H        -4.168602         0.272029         2.954170
