19
Iteration:  3813charge 0 multiplicity 1
 C         2.108107         0.038013        -0.545207
 C         0.756169        -0.326285        -0.121320
 C        -0.384756        -0.614053         0.036618
 C        -1.831404        -0.629130         0.108982
 C        -2.571891         0.533456        -0.642690
 O        -2.489720        -0.542280         1.406623
 C        -3.818462        -0.901979         1.523099
 C        -4.130969        -0.461476         2.940658
 O        -4.490912        -1.500698         0.712270
 H         2.104959        -0.454412        -1.527446
 H         2.030240         1.100523        -0.750323
 H         2.868897        -0.202889         0.141740
 H        -2.238865        -1.464659        -0.458443
 H        -3.643265         0.298816        -1.007965
 H        -2.554208         1.483456        -0.076367
 H        -2.018813         0.808861        -1.544889
 H        -5.184489        -0.488293         3.278521
 H        -3.523241        -1.014592         3.674840
 H        -3.784663         0.611154         3.092248
