19
Iteration:  1095charge 0 multiplicity 1
 C         1.780523         0.222196         0.277182
 C         0.375167         0.059315        -0.033554
 C        -0.827742        -0.133230        -0.049598
 C        -2.305051        -0.245655        -0.245721
 C        -2.929877         0.903543        -1.164926
 O        -2.874118        -0.183917         1.053987
 C        -3.253026        -1.333755         1.582785
 C        -3.775280        -1.062977         2.984119
 O        -3.219384        -2.405524         0.958127
 H         2.109812        -0.500328         0.923298
 H         2.397589         0.068240        -0.744575
 H         2.153203         1.253496         0.749245
 H        -2.620231        -1.210633        -0.786372
 H        -2.285036         1.810820        -1.218020
 H        -3.053895         0.419437        -2.258423
 H        -3.927926         1.330628        -0.927903
 H        -3.807405        -1.869083         3.700611
 H        -3.426927        -0.167394         3.487449
 H        -4.908568        -0.969039         2.994005
