19
Iteration:  1072charge 0 multiplicity 1
 C         1.788146         0.243715         0.133612
 C         0.359064         0.123821         0.202052
 C        -0.802866         0.052864        -0.165564
 C        -2.193032        -0.281343        -0.283354
 C        -2.812617         0.871430        -1.160818
 O        -2.785324        -0.216181         1.093254
 C        -3.335305        -1.359339         1.577163
 C        -3.784463        -1.111373         2.917979
 O        -3.431119        -2.495829         1.057932
 H         2.339466        -0.140268         0.911267
 H         2.234272         0.004984        -0.974644
 H         1.857714         1.394198         0.275319
 H        -2.489581        -1.252555        -0.788572
 H        -2.315181         1.829480        -1.249224
 H        -3.091327         0.460551        -2.263629
 H        -3.743814         1.187518        -0.688281
 H        -4.214517        -1.904644         3.541014
 H        -3.108570        -0.511835         3.534538
 H        -4.723954        -0.508800         2.953732
