19
Iteration:  1832charge 0 multiplicity 1
 C         2.005397         0.487136        -0.025380
 C         0.590980         0.172906        -0.093336
 C        -0.532151        -0.259820        -0.232210
 C        -1.925202        -0.707412        -0.143867
 C        -2.872291         0.308484        -0.921142
 O        -2.297416        -0.639164         1.338878
 C        -3.566326        -1.103972         1.568098
 C        -4.055474        -0.724650         2.989964
 O        -4.278518        -1.720931         0.821164
 H         2.501343        -0.232299        -0.585982
 H         2.444265         1.459889        -0.349498
 H         2.386703         0.226954         1.036731
 H        -2.106834        -1.654317        -0.663452
 H        -2.601604         1.288687        -0.472039
 H        -2.632202         0.398527        -1.969905
 H        -3.912836        -0.117809        -0.690096
 H        -3.226974        -0.640171         3.702937
 H        -4.689205         0.222619         2.942754
 H        -4.788136        -1.605114         3.100216
