19
Iteration:  2882
 C         2.070347         0.232006        -0.138541
 C         0.684861        -0.027795        -0.219537
 C        -0.444190        -0.511233        -0.147537
 C        -1.914497        -0.787490         0.026672
 C        -2.654985         0.273147        -0.862839
 O        -2.371738        -0.636219         1.470741
 C        -3.664116        -0.933173         1.528982
 C        -4.117050        -0.695224         2.991197
 O        -4.463274        -1.178087         0.645962
 H         2.340775         1.131325         0.387458
 H         2.319528        -0.668735         0.458593
 H         2.566481         0.225641        -1.175568
 H        -2.238445        -1.792976        -0.289967
 H        -3.774942         0.284759        -0.545642
 H        -2.132178         1.195249        -0.696523
 H        -2.640586         0.035076        -1.896306
 H        -4.123479        -1.742244         3.356400
 H        -3.428419        -0.232026         3.725818
 H        -5.160553        -0.335625         2.983140
