19
Iteration:  4520charge 0 multiplicity 1
 C         2.020643        -0.580585        -0.293981
 C         0.631361        -0.430508        -0.097408
 C        -0.556000        -0.274936        -0.071908
 C        -2.021019        -0.379840        -0.170360
 C        -2.721748         0.537289        -1.109610
 O        -2.395942        -0.438829         1.341990
 C        -3.614491        -0.819433         1.712437
 C        -3.739662        -0.771963         3.155765
 O        -4.575618        -1.099494         0.920923
 H         2.655102        -0.123430         0.440070
 H         2.486064        -1.499143        -0.545994
 H         2.259915        -0.137286        -1.281144
 H        -2.037432        -1.450042        -0.562536
 H        -3.781200         0.448365        -0.915598
 H        -2.500172         1.507222        -0.795390
 H        -2.469649         0.303787        -2.186354
 H        -2.847616        -1.176721         3.616372
 H        -3.718884         0.312195         3.252513
 H        -4.611783        -1.245368         3.601641
