19
Iteration:  4748charge 0 multiplicity 1
 C         1.992984        -0.622425        -0.461610
 C         0.670673        -0.436985        -0.031489
 C        -0.518093        -0.322391        -0.153337
 C        -1.982642        -0.394315        -0.083665
 C        -2.777722         0.626980        -0.921840
 O        -2.346802        -0.364115         1.355870
 C        -3.632703        -0.809620         1.663482
 C        -3.844806        -0.613426         3.138850
 O        -4.473090        -1.306985         0.873691
 H         2.419617         0.233477        -1.016866
 H         2.650212        -1.089492         0.297904
 H         1.791872        -1.444900        -1.194696
 H        -2.236664        -1.396645        -0.401164
 H        -3.674563         0.166332        -1.151915
 H        -2.907613         1.523367        -0.406418
 H        -2.188645         0.859516        -1.840337
 H        -3.031879        -1.084500         3.709193
 H        -3.922218         0.491169         3.279439
 H        -4.784214        -0.972264         3.574537
