19
Iteration:  4426charge 0 multiplicity 1
 C         1.940723        -0.722191        -0.407642
 C         0.550718        -0.582834        -0.306805
 C        -0.647617        -0.346729        -0.111617
 C        -2.049512        -0.200394        -0.138048
 C        -2.642646         0.908468        -0.949835
 O        -2.450637        -0.136996         1.418196
 C        -3.580765        -0.871634         1.718980
 C        -4.113867        -0.532613         3.096712
 O        -3.988139        -1.809009         0.963193
 H         2.307566        -0.831797         0.670532
 H         2.425801        -1.529493        -1.011367
 H         2.422362         0.124916        -0.877412
 H        -2.512096        -1.079370        -0.431718
 H        -3.711263         0.859593        -1.113607
 H        -2.532579         1.849579        -0.262381
 H        -2.129408         1.018435        -1.929026
 H        -3.996144        -1.332980         3.855725
 H        -3.622739         0.391793         3.445199
 H        -5.215124        -0.493193         3.056603
