19
Iteration:  2387charge 0 multiplicity 1
 C         1.534785        -0.544791         0.464903
 C         0.243967        -0.480008        -0.186718
 C        -0.936712        -0.254836        -0.255833
 C        -2.403218        -0.015357        -0.311863
 C        -2.736858         1.124030        -1.167142
 O        -2.918688         0.138344         1.087870
 C        -3.077410        -1.081113         1.616408
 C        -4.005322        -0.976141         2.870583
 O        -2.780927        -2.173828         1.139111
 H         1.634306        -1.465458         1.185508
 H         2.439598        -0.578258        -0.206566
 H         1.610116         0.325194         1.054738
 H        -3.009077        -0.892327        -0.662178
 H        -2.026958         2.004131        -1.130534
 H        -2.625887         0.692972        -2.155050
 H        -3.673541         1.590010        -1.145915
 H        -5.010874        -0.734222         2.438485
 H        -3.994718        -1.856316         3.517977
 H        -3.656244        -0.114397         3.424710
