19
Iteration:  2486charge 0 multiplicity 1
 C         1.812911        -0.401386         0.120812
 C         0.383579        -0.277457         0.086893
 C        -0.821183        -0.146834         0.095065
 C        -2.257666        -0.174810        -0.279096
 C        -2.592495         1.095569        -1.174968
 O        -3.143760        -0.041796         0.884152
 C        -3.333122        -1.246769         1.645403
 C        -3.706157        -0.710187         2.961293
 O        -3.421154        -2.351565         1.122857
 H         2.255491        -1.316232        -0.291077
 H         2.333847         0.365499        -0.453717
 H         2.047331        -0.330217         1.121797
 H        -2.370535        -0.965459        -0.993545
 H        -2.774512         1.995295        -0.635634
 H        -1.659512         1.391204        -1.745144
 H        -3.309283         1.021057        -1.980151
 H        -4.196810        -1.496724         3.550674
 H        -2.735535        -0.403637         3.370655
 H        -4.495439         0.025907         2.803943
