19
Iteration:  4858
 C         1.866717        -0.702975        -0.541163
 C         0.511442        -0.524085        -0.128014
 C        -0.709215        -0.496036         0.025900
 C        -2.175797        -0.308904        -0.067700
 C        -2.384070         1.074630        -0.896542
 O        -2.613344        -0.034505         1.240482
 C        -3.543091        -0.964293         1.686634
 C        -3.979854        -0.515858         2.975713
 O        -3.989219        -1.880524         1.120847
 H         2.027824        -0.237540        -1.562311
 H         2.618926        -0.199694         0.108623
 H         2.194108        -1.770695        -0.835699
 H        -2.612200        -1.185644        -0.589296
 H        -3.371717         1.404765        -0.666373
 H        -1.718365         1.819846        -0.515729
 H        -2.393392         1.055662        -2.001158
 H        -4.007486        -1.450399         3.626593
 H        -3.261454         0.170062         3.482751
 H        -4.978357        -0.052965         2.849420
