19
Iteration:  3033
 C         1.981312        -0.471870         0.228214
 C         0.535040        -0.350602         0.149501
 C        -0.663734        -0.176183        -0.079226
 C        -2.189777        -0.262930        -0.342543
 C        -2.720197         0.769889        -1.364865
 O        -2.858116         0.017959         1.012541
 C        -3.552671        -0.997453         1.643561
 C        -3.800246        -0.754804         3.057787
 O        -3.775500        -1.996413         1.075763
 H         2.170152        -0.379450         1.360150
 H         2.543805        -1.366800        -0.049504
 H         2.376720         0.268941        -0.415768
 H        -2.274532        -1.265475        -0.719111
 H        -3.844406         0.904919        -1.527200
 H        -2.377509         1.762302        -1.132536
 H        -2.229147         0.431030        -2.232874
 H        -2.865751        -0.533317         3.510068
 H        -4.396091         0.136315         3.147295
 H        -4.155285        -1.704868         3.458827
