19
Iteration:  1608charge 0 multiplicity 1
 C         1.948521         0.382633        -0.034782
 C         0.559571         0.056251        -0.160002
 C        -0.659679        -0.052732        -0.070070
 C        -2.059729        -0.504746        -0.044671
 C        -2.907998         0.482164        -0.923026
 O        -2.420773        -0.469548         1.301170
 C        -3.471738        -1.205147         1.582269
 C        -3.977783        -0.850230         2.959934
 O        -3.996804        -1.993647         0.734294
 H         2.313548         0.564268         1.096080
 H         2.496950        -0.495390        -0.455523
 H         2.288707         1.117912        -0.657844
 H        -2.090303        -1.540852        -0.250959
 H        -2.957776         1.469477        -0.360219
 H        -2.455323         0.440183        -1.897631
 H        -4.037645         0.308684        -1.108312
 H        -3.967063         0.226218         3.015407
 H        -4.909118        -1.370272         3.017616
 H        -3.273855        -1.351583         3.634268
