19
Iteration:  4750
 C         2.007959        -0.629429        -0.470464
 C         0.680802        -0.437052        -0.039137
 C        -0.533371        -0.326566        -0.148386
 C        -2.011395        -0.396704        -0.047126
 C        -2.768178         0.629208        -0.922739
 O        -2.344951        -0.345291         1.353888
 C        -3.626866        -0.808718         1.655633
 C        -3.844337        -0.618518         3.136473
 O        -4.471452        -1.318320         0.858355
 H         2.385813         0.229015        -0.972253
 H         2.639480        -1.066022         0.260287
 H         1.775139        -1.465566        -1.147758
 H        -2.197970        -1.369954        -0.407623
 H        -3.709297         0.153507        -1.134612
 H        -2.938030         1.569395        -0.417695
 H        -2.168346         0.852242        -1.862970
 H        -3.035691        -1.084791         3.743704
 H        -3.888307         0.483326         3.269211
 H        -4.765601        -0.948119         3.629086
