19
Iteration:  1663
 C         2.144201         0.460836        -0.245865
 C         0.687987         0.173555        -0.101701
 C        -0.531514        -0.073141        -0.021100
 C        -1.935117        -0.577696        -0.047340
 C        -2.816509         0.187050        -0.960633
 O        -2.477816        -0.394838         1.377638
 C        -3.644752        -1.079546         1.594425
 C        -4.026033        -1.162112         3.035441
 O        -4.313755        -1.672511         0.724600
 H         2.648845         0.146004         0.781851
 H         2.674650        -0.123452        -1.053955
 H         2.394878         1.455264        -0.305107
 H        -1.960043        -1.636791        -0.104030
 H        -2.911420         1.289432        -0.691456
 H        -2.510766         0.316737        -2.043097
 H        -3.827791        -0.270300        -0.978483
 H        -4.991747        -0.693176         3.147671
 H        -4.264529        -2.187711         3.277552
 H        -3.235038        -0.691627         3.614356
