19
Iteration:   927charge 0 multiplicity 1
 C         1.990103         0.770662        -0.241426
 C         0.598570         0.380059        -0.072172
 C        -0.558851         0.034957         0.114588
 C        -1.925421        -0.548037         0.045646
 C        -2.857730         0.258192        -0.878652
 O        -2.510037        -0.589369         1.302778
 C        -3.615397        -1.333351         1.504733
 C        -3.968913        -1.129866         2.981378
 O        -4.101818        -1.944306         0.623499
 H         2.151844         1.704533         0.368814
 H         2.580231        -0.152478         0.191996
 H         2.252748         0.874538        -1.206105
 H        -1.893089        -1.571872        -0.202301
 H        -2.999275         1.243584        -0.406712
 H        -2.475239         0.411371        -1.806757
 H        -3.785939        -0.287766        -1.088783
 H        -4.431379        -0.152263         3.111590
 H        -4.579482        -1.900613         3.459920
 H        -3.083399        -1.164272         3.623186
