19
Iteration:  2408
 C         1.624264        -0.541284         0.435304
 C         0.321909        -0.375437        -0.151098
 C        -0.899699        -0.271297        -0.179560
 C        -2.299190        -0.075698        -0.321295
 C        -2.774789         1.188926        -1.179571
 O        -2.965018         0.041441         0.983804
 C        -3.261974        -1.127668         1.564080
 C        -3.950316        -0.862096         2.927574
 O        -2.889021        -2.229226         1.163939
 H         1.666959        -1.559661         0.796557
 H         2.413337        -0.416936        -0.346981
 H         1.795927         0.147455         1.231755
 H        -2.628009        -0.981735        -0.797972
 H        -2.250490         2.118682        -0.793624
 H        -2.674770         1.072485        -2.230900
 H        -3.758019         1.461447        -0.907557
 H        -5.053042        -0.978182         2.935034
 H        -3.519876        -1.499376         3.705906
 H        -3.533902         0.074451         3.211055
