19
Iteration:   851
 C         1.833640         1.043060        -0.237387
 C         0.575187         0.340417        -0.073646
 C        -0.450281        -0.327205        -0.001653
 C        -1.835546        -0.609189         0.020990
 C        -2.740288         0.286273        -0.862346
 O        -2.353492        -0.671137         1.381389
 C        -3.594586        -1.307177         1.527940
 C        -4.026949        -1.175129         2.956709
 O        -4.283753        -1.776705         0.665871
 H         1.597585         2.081713        -0.483386
 H         2.417605         0.999620         0.810444
 H         2.397419         0.618803        -1.000294
 H        -1.947426        -1.677205        -0.292350
 H        -2.595906         1.387326        -0.813815
 H        -2.539020         0.074910        -1.860914
 H        -3.780811        -0.075551        -0.723170
 H        -3.587540        -0.567815         3.668493
 H        -5.029612        -0.850456         2.987803
 H        -3.969757        -2.185499         3.303141
