19
Iteration:   505charge 0 multiplicity 1
 C         1.593261         0.487580         0.078190
 C         0.237002        -0.092536         0.067673
 C        -0.945903        -0.205184        -0.074438
 C        -2.318629        -0.137462        -0.332323
 C        -2.753189         1.037250        -1.215002
 O        -3.013037        -0.141128         1.029457
 C        -3.133691        -1.414699         1.671774
 C        -3.855156        -1.264703         2.936688
 O        -2.894329        -2.480792         1.185507
 H         1.975399         0.337593         1.187993
 H         2.255297        -0.063959        -0.521867
 H         1.553140         1.518216        -0.180035
 H        -2.581984        -1.131370        -0.674757
 H        -2.643854         2.017996        -0.681461
 H        -1.995523         1.138216        -1.995653
 H        -3.671882         0.803677        -1.713234
 H        -3.819552        -0.315845         3.583914
 H        -4.963261        -1.424474         2.724597
 H        -3.559748        -2.207994         3.564329
