19
Iteration:   431charge 0 multiplicity 1
 C         1.687048         0.045517         0.257254
 C         0.284454         0.068539        -0.071685
 C        -0.922704         0.142030        -0.192306
 C        -2.396457        -0.101526        -0.388968
 C        -3.095168         1.115180        -1.115375
 O        -3.125372        -0.227104         0.890633
 C        -3.067285        -1.434013         1.636038
 C        -4.016641        -1.255241         2.819481
 O        -2.422778        -2.450093         1.404216
 H         1.829131         0.828181         1.217131
 H         2.007769        -0.985366         0.508150
 H         2.206611         0.473209        -0.575170
 H        -2.538892        -1.243177        -0.750814
 H        -2.510193         2.059334        -0.728959
 H        -3.032599         1.226172        -2.175783
 H        -4.153575         0.905479        -0.858927
 H        -3.436964        -0.950195         3.747768
 H        -4.884660        -0.555677         2.655575
 H        -4.464602        -2.237066         3.228494
