19
Iteration:    74charge 0 multiplicity 1
 C         1.786858         0.503369         0.297683
 C         0.308099         0.513640         0.015144
 C        -0.800761         0.059509        -0.169457
 C        -2.241026        -0.232104        -0.197719
 C        -3.054874         0.699443        -0.956078
 O        -2.685716        -0.336109         1.097245
 C        -3.265487        -1.461278         1.505003
 C        -3.739643        -1.279142         2.892670
 O        -3.353598        -2.479848         0.834630
 H         2.069088        -0.540638         0.870093
 H         2.324570         0.443808        -0.655785
 H         2.158717         1.498012         0.774060
 H        -2.358625        -1.159814        -0.802239
 H        -3.247726         1.675761        -0.374371
 H        -2.643378         0.604050        -1.909106
 H        -4.085309         0.252386        -0.892576
 H        -4.699413        -1.872840         2.932998
 H        -2.965262        -1.616901         3.614371
 H        -3.929611        -0.217021         3.195126
