19
Iteration:   443
 C         1.725946         0.121806         0.241925
 C         0.280003         0.133475        -0.100528
 C        -0.925839        -0.019555        -0.179060
 C        -2.363473        -0.143553        -0.362840
 C        -3.076305         1.036248        -1.037373
 O        -3.158237        -0.247849         0.907654
 C        -3.073729        -1.367547         1.631231
 C        -3.960255        -1.250304         2.795163
 O        -2.524255        -2.394935         1.373100
 H         1.873346         0.634495         1.296825
 H         2.088832        -0.932533         0.405732
 H         2.513478         0.581891        -0.431295
 H        -2.554572        -1.069533        -1.072698
 H        -2.731198         2.012888        -0.505816
 H        -2.964000         1.049133        -2.099110
 H        -4.150851         1.168223        -0.708859
 H        -3.444921        -0.706617         3.602274
 H        -4.818944        -0.616779         2.491109
 H        -4.242698        -2.313388         2.987814
