19
Iteration:  1587charge 0 multiplicity 1
 C         1.879603         0.303694         0.025376
 C         0.493668         0.198790        -0.198667
 C        -0.643285        -0.174477        -0.160413
 C        -2.017191        -0.469401        -0.208698
 C        -2.768689         0.630033        -0.881650
 O        -2.475794        -0.448465         1.268031
 C        -3.565753        -1.217835         1.592451
 C        -3.986464        -0.836060         2.993994
 O        -3.921156        -2.176486         0.861520
 H         2.072130         0.833618         1.068537
 H         2.508889        -0.636186        -0.127850
 H         2.304075         0.985275        -0.617767
 H        -2.218226        -1.453779        -0.559943
 H        -2.678948         1.620457        -0.385257
 H        -2.503074         0.680009        -1.943302
 H        -3.894225         0.568292        -0.922229
 H        -3.665073         0.214593         2.986865
 H        -5.048004        -0.893397         3.188376
 H        -3.328808        -1.490632         3.606735
