19
Iteration:  3589charge 0 multiplicity 1
 C         2.011109        -0.080160         0.281713
 C         0.572700        -0.302671        -0.023943
 C        -0.605256        -0.309044        -0.274876
 C        -2.036869        -0.581160        -0.330995
 C        -2.934852         0.237491        -1.267179
 O        -2.322474        -0.426864         1.170576
 C        -3.534615        -0.816840         1.590481
 C        -3.674848        -0.647417         3.108825
 O        -4.414118        -1.311287         1.024349
 H         2.692208        -0.545069        -0.415675
 H         2.043181         1.065878         0.248177
 H         2.245833        -0.513071         1.311941
 H        -2.215053        -1.730216        -0.579378
 H        -4.072336         0.011568        -1.129177
 H        -2.737310         1.297627        -1.191570
 H        -2.633957        -0.181127        -2.263805
 H        -4.549831         0.002657         3.190746
 H        -3.915744        -1.668669         3.431703
 H        -2.748752        -0.251683         3.587317
