19
Iteration:  4267
 C         1.514906        -1.180514        -0.074757
 C         0.174832        -0.770494        -0.068050
 C        -0.962161        -0.293854        -0.150332
 C        -2.322873         0.155834        -0.323002
 C        -2.523612         1.429537        -1.099423
 O        -2.954460         0.172157         1.021855
 C        -3.239867        -1.006276         1.697275
 C        -4.044825        -0.676008         2.981286
 O        -2.768707        -2.104349         1.326360
 H         1.530951        -2.182307         0.394189
 H         1.978540        -1.245792        -1.081988
 H         2.257790        -0.641094         0.661654
 H        -2.849222        -0.684451        -0.935603
 H        -3.581538         1.714892        -0.969622
 H        -2.098982         2.227297        -0.573991
 H        -2.142059         1.315344        -2.083838
 H        -5.101058        -0.980286         2.893260
 H        -3.671684        -1.231795         3.844994
 H        -3.990100         0.393103         3.050194
