19
Iteration:  4543charge 0 multiplicity 1
 C         2.041599        -0.351180        -0.245492
 C         0.666075        -0.499989        -0.181592
 C        -0.595780        -0.472351        -0.152318
 C        -2.136089        -0.562563        -0.190654
 C        -2.510524         0.643292        -1.132796
 O        -2.453472        -0.440269         1.219407
 C        -3.659741        -0.754299         1.737454
 C        -3.707772        -0.781652         3.305384
 O        -4.632609        -1.056774         1.006471
 H         2.587535         0.180341         0.542503
 H         2.558880        -1.293112        -0.279229
 H         2.444027        -0.141215        -1.250503
 H        -2.492472        -1.575956        -0.662992
 H        -3.548833         0.750391        -1.163335
 H        -2.081622         1.563097        -0.900075
 H        -2.172879         0.158803        -2.072463
 H        -2.832761        -1.317052         3.643683
 H        -3.905261         0.180414         3.755422
 H        -4.480362        -1.521142         3.419103
