19
Iteration:  3297
 C         1.653991        -0.952124         0.147193
 C         0.217054        -0.634357         0.027852
 C        -0.872411        -0.281810        -0.356347
 C        -2.300025         0.019489        -0.451915
 C        -2.657193         1.308135        -1.131170
 O        -3.114185        -0.083665         0.796396
 C        -3.179102        -1.000926         1.711810
 C        -4.405583        -0.741637         2.639650
 O        -2.443613        -1.910928         1.898331
 H         1.797147        -2.052062         0.400077
 H         2.357229        -0.690062        -0.677058
 H         1.948784        -0.310038         0.935626
 H        -2.677033        -0.704453        -1.238538
 H        -3.626507         1.315841        -1.546477
 H        -2.278722         2.107794        -0.493597
 H        -1.879816         1.435903        -1.923544
 H        -4.918342         0.209322         2.420325
 H        -5.102035        -1.589849         2.588381
 H        -4.248709        -0.744596         3.713272
