19
Iteration:  3547charge 0 multiplicity 1
 C         1.817027        -0.072532         0.385119
 C         0.477167        -0.331034        -0.161345
 C        -0.665748        -0.703684        -0.379220
 C        -2.195288        -0.603491        -0.303746
 C        -2.739275         0.520369        -1.104683
 O        -2.405986        -0.178100         1.131654
 C        -3.529756        -0.859172         1.627547
 C        -3.660288        -0.515678         3.063946
 O        -4.110452        -1.642053         0.950676
 H         2.514599        -0.510949        -0.311328
 H         2.013546         0.937909         0.317441
 H         1.985817        -0.295519         1.427786
 H        -2.602734        -1.618171        -0.350996
 H        -3.854824         0.496099        -0.886298
 H        -2.485401         1.578810        -0.877792
 H        -2.468892         0.268829        -2.191594
 H        -4.459339         0.189063         3.335217
 H        -3.844458        -1.443157         3.638309
 H        -2.686920        -0.033822         3.357345
