19
Iteration:  1600
 C         1.961919         0.362788        -0.025703
 C         0.488500         0.101383        -0.179450
 C        -0.707405        -0.059815        -0.094000
 C        -2.105495        -0.516565        -0.069042
 C        -2.839601         0.537156        -0.884198
 O        -2.442232        -0.485022         1.286640
 C        -3.527406        -1.215907         1.533380
 C        -3.950775        -0.814290         2.932217
 O        -3.924763        -2.047293         0.788669
 H         2.084525         0.547342         1.045198
 H         2.550578        -0.639390        -0.147233
 H         2.383378         1.173287        -0.639948
 H        -2.251426        -1.525732        -0.531016
 H        -2.638615         1.456307        -0.408442
 H        -2.286979         0.535817        -1.899541
 H        -3.833545         0.225599        -0.970568
 H        -3.793342         0.251141         3.236793
 H        -4.966447        -1.237062         3.174927
 H        -3.315123        -1.352904         3.689528
