19
Iteration:  3455
 C         1.936923        -0.457797         0.024063
 C         0.446271        -0.285593        -0.007058
 C        -0.763286        -0.480413         0.064380
 C        -2.150913        -0.428239        -0.317213
 C        -2.542208         0.874008        -1.221072
 O        -2.923809         0.011925         0.911476
 C        -3.430147        -1.042148         1.686658
 C        -3.930913        -0.403179         2.960480
 O        -3.660129        -2.146425         1.288256
 H         2.261122        -1.282546        -0.556177
 H         2.399209         0.450480        -0.397254
 H         2.375047        -0.435291         1.006228
 H        -2.633644        -1.268332        -0.780699
 H        -3.566580         1.196410        -1.417420
 H        -2.086261         1.725669        -0.652542
 H        -1.909461         0.858758        -2.066315
 H        -4.778026         0.194739         2.628215
 H        -4.331681        -1.213228         3.601579
 H        -3.284339         0.258536         3.482725
