19
Iteration:  3052
 C         1.885481        -0.537028         0.292305
 C         0.448718        -0.381806         0.162978
 C        -0.745592        -0.202195        -0.035206
 C        -2.159934        -0.158946        -0.291331
 C        -2.758216         0.752853        -1.353304
 O        -2.848100         0.142889         0.979139
 C        -3.405409        -1.023807         1.536321
 C        -3.826776        -0.693991         3.061572
 O        -3.577525        -2.089294         1.014535
 H         2.225341        -0.708852         1.287251
 H         2.121666        -1.470950        -0.196943
 H         2.378158         0.137600        -0.391046
 H        -2.565939        -1.198360        -0.420310
 H        -3.848193         0.704017        -0.990235
 H        -2.611314         1.791531        -1.175312
 H        -2.596476         0.364359        -2.383288
 H        -3.007586        -0.307437         3.748046
 H        -4.544111         0.131365         3.037729
 H        -4.100341        -1.686892         3.421482
