19
Iteration:  1323charge 0 multiplicity 1
 C         1.445555        -0.368126         0.497824
 C         0.188721        -0.348926        -0.200450
 C        -1.016658        -0.094579        -0.234309
 C        -2.447236        -0.017572        -0.474690
 C        -2.899802         1.198774        -1.184574
 O        -3.159086        -0.100154         0.929772
 C        -3.046335        -1.191899         1.675952
 C        -3.922874        -1.214996         2.902636
 O        -2.262687        -2.084357         1.304997
 H         2.305571        -0.115205        -0.274686
 H         1.444639         0.517945         1.241612
 H         1.652041        -1.234382         1.004320
 H        -2.732230        -0.950280        -0.908118
 H        -2.621257         2.043390        -0.575042
 H        -2.423329         1.298148        -2.130521
 H        -3.974665         1.132668        -1.350630
 H        -4.921844        -1.532857         2.514696
 H        -3.632686        -1.849216         3.790702
 H        -4.032177        -0.248021         3.456598
