19
Iteration:  1423
 C         1.794450        -0.234473         0.151852
 C         0.306173        -0.160344        -0.059906
 C        -0.886383         0.119783         0.118886
 C        -2.315533        -0.025234        -0.275428
 C        -2.882792         1.009866        -1.255846
 O        -3.085505        -0.112364         0.980099
 C        -3.270499        -1.376344         1.607359
 C        -3.936809        -0.980047         2.916896
 O        -2.826878        -2.382251         1.162731
 H         2.244724         0.724762        -0.199260
 H         2.037262        -0.481273         1.264182
 H         2.243608        -0.946636        -0.406563
 H        -2.350507        -1.013798        -0.673715
 H        -2.594876         2.046154        -0.942367
 H        -2.509125         0.711449        -2.147383
 H        -4.017936         1.018527        -1.288687
 H        -3.629324        -1.649806         3.767291
 H        -3.579602        -0.006780         3.334249
 H        -5.036756        -1.071610         2.882056
