19
Iteration:    22charge 0 multiplicity 1
 C         1.872385         0.842073         0.126968
 C         0.551466         0.260526        -0.037462
 C        -0.670002         0.143146        -0.182571
 C        -2.081639        -0.264466        -0.160031
 C        -3.084760         0.607439        -1.002818
 O        -2.478901        -0.415883         1.309798
 C        -3.357479        -1.469007         1.525579
 C        -3.917092        -1.458823         2.952892
 O        -3.784669        -2.324148         0.770850
 H         2.154240         0.763718         1.218635
 H         2.614302         0.333475        -0.464954
 H         1.829215         1.823485        -0.149782
 H        -2.146643        -1.285807        -0.572175
 H        -3.393108         1.482204        -0.420615
 H        -2.565491         0.871795        -1.896056
 H        -3.905061        -0.037430        -1.245006
 H        -4.746366        -2.173345         2.985439
 H        -3.164657        -1.754241         3.707319
 H        -4.303398        -0.463643         3.190699
