19
Iteration:  1210
 C         1.590192        -0.295909         0.374274
 C         0.205531        -0.073375         0.079381
 C        -0.984515        -0.014561        -0.077991
 C        -2.368118        -0.116844        -0.486576
 C        -2.973216         1.129347        -1.119299
 O        -3.271929        -0.247572         0.721731
 C        -3.095670        -1.234030         1.594542
 C        -3.739669        -1.032210         3.011019
 O        -2.486183        -2.232626         1.230642
 H         1.987863        -1.384416        -0.006566
 H         2.238767         0.452682         0.091354
 H         1.657435        -0.326269         1.468354
 H        -2.518423        -1.004530        -1.061959
 H        -3.257588         1.709792        -0.220093
 H        -2.340583         1.679650        -1.824612
 H        -3.881798         0.860046        -1.631771
 H        -3.331203        -0.079375         3.358177
 H        -4.795442        -1.046186         2.826594
 H        -3.326109        -1.869019         3.569459
