19
Iteration:   150charge 0 multiplicity 1
 C         1.702894         0.401811         0.319913
 C         0.295923         0.154647         0.034323
 C        -0.918426        -0.018023        -0.006826
 C        -2.392500        -0.230110        -0.333023
 C        -2.959106         0.903065        -1.163860
 O        -3.143355        -0.216151         1.015702
 C        -3.218269        -1.413556         1.558073
 C        -3.659193        -1.348102         3.000265
 O        -2.837226        -2.380621         0.895722
 H         2.381208        -0.514583         0.166572
 H         2.192363         1.257925        -0.147462
 H         1.783903         0.547943         1.488895
 H        -2.589285        -1.168259        -0.879673
 H        -2.674305         2.002271        -0.818122
 H        -2.598597         0.735729        -2.216616
 H        -4.122274         0.869034        -1.046409
 H        -4.530153        -1.978352         3.269427
 H        -2.791668        -1.645828         3.634614
 H        -3.670232        -0.303513         3.368376
