19
Iteration:  1695
 C         1.997798         0.487909        -0.327056
 C         0.505335         0.275561        -0.184493
 C        -0.591808        -0.177539         0.238076
 C        -1.921003        -0.618888         0.031569
 C        -2.512343         0.231120        -1.141540
 O        -2.479911        -0.494103         1.422472
 C        -3.730157        -1.122546         1.582398
 C        -3.926220        -1.162720         3.073472
 O        -4.361930        -1.562593         0.698371
 H         2.433184        -0.236330         0.521180
 H         2.477802         0.106981        -1.247490
 H         2.252254         1.498356        -0.106609
 H        -2.053978        -1.674095        -0.257633
 H        -2.302743         1.374385        -0.937224
 H        -1.831003         0.016264        -2.023163
 H        -3.569200        -0.049398        -1.400368
 H        -4.944283        -1.170954         3.380660
 H        -3.401874        -1.958893         3.583717
 H        -3.570038        -0.279787         3.608140
