19
Iteration:  4922charge 0 multiplicity 1
 C         1.858195        -0.830425        -0.294595
 C         0.432174        -0.680530        -0.395820
 C        -0.737529        -0.383587        -0.346329
 C        -2.144084        -0.080375        -0.196030
 C        -2.366803         1.310901        -0.867296
 O        -2.672529         0.033231         1.130644
 C        -3.426534        -0.998907         1.797175
 C        -4.082184        -0.560838         3.018248
 O        -3.820258        -2.132234         1.372749
 H         2.183705        -0.768536        -1.337608
 H         2.296913        -0.004929         0.307670
 H         2.022659        -1.753594         0.206321
 H        -2.916420        -0.811384        -0.587236
 H        -3.297075         1.223283        -1.363281
 H        -2.584826         1.998134        -0.095314
 H        -1.534309         1.584117        -1.540996
 H        -4.894732        -1.253925         3.288271
 H        -3.398933        -0.703927         3.845945
 H        -4.491285         0.417273         2.963218
