19
Iteration:  4813charge 0 multiplicity 1
 C         2.039363        -0.616365        -0.528093
 C         0.583850        -0.641687        -0.387179
 C        -0.598569        -0.419521        -0.101760
 C        -2.051245        -0.279648         0.007457
 C        -2.491250         0.831402        -1.027685
 O        -2.601873         0.029605         1.442493
 C        -3.594193        -0.816224         1.782152
 C        -4.128538        -0.777417         3.141050
 O        -4.137116        -1.598537         1.025502
 H         2.631505        -0.047294        -1.288562
 H         2.597409        -0.538106         0.458370
 H         2.307927        -1.627452        -0.938063
 H        -2.681135        -1.189881        -0.179190
 H        -3.448199         1.177872        -1.093905
 H        -1.789359         1.599665        -0.974333
 H        -2.276238         0.381990        -2.039782
 H        -3.703130        -1.678527         3.610207
 H        -3.821807         0.174087         3.638293
 H        -5.218413        -0.833065         3.023086
