19
Iteration:   367charge 0 multiplicity 1
 C         1.568388        -0.210491         0.311278
 C         0.194338         0.133202         0.078188
 C        -0.989427         0.016127        -0.090703
 C        -2.397308        -0.179067        -0.296418
 C        -3.191334         1.045169        -1.144400
 O        -3.197047        -0.197206         0.913724
 C        -3.022899        -1.276496         1.593189
 C        -3.941498        -1.379267         2.787239
 O        -2.162951        -2.036561         1.231105
 H         2.183925         0.693842         0.474090
 H         1.696732        -0.835181         1.231044
 H         1.971248        -0.739744        -0.634379
 H        -2.519496        -1.065446        -0.903679
 H        -3.358532         1.941466        -0.429040
 H        -2.615652         1.411222        -1.980846
 H        -4.037896         0.513101        -1.662322
 H        -3.266962        -1.794210         3.524245
 H        -4.316616        -0.416532         3.153405
 H        -4.686705        -2.086813         2.373752
