19
Iteration:  2540charge 0 multiplicity 1
 C         1.818038        -0.224820         0.152699
 C         0.424488        -0.276862         0.070885
 C        -0.787001        -0.339431        -0.026591
 C        -2.237307        -0.224754        -0.213899
 C        -2.536302         0.889953        -1.322178
 O        -2.913687         0.099274         1.020911
 C        -3.399675        -1.113025         1.659689
 C        -3.831961        -0.934391         3.073878
 O        -3.575660        -2.135239         1.012593
 H         2.102377        -0.876785        -0.691572
 H         2.179732         0.837625        -0.117894
 H         2.403762        -0.612503         1.028616
 H        -2.629264        -1.150906        -0.620996
 H        -2.013123         1.836631        -1.072274
 H        -2.183974         0.655213        -2.391822
 H        -3.626479         1.080228        -1.304987
 H        -3.351194        -1.755546         3.630835
 H        -3.644775         0.050202         3.562254
 H        -4.917473        -1.143390         3.030964
