19
Iteration:  2857
 C         2.128053         0.223072        -0.271666
 C         0.747970        -0.019199        -0.113510
 C        -0.412195        -0.391520         0.019663
 C        -1.887616        -0.777415         0.013680
 C        -2.616304         0.250222        -1.010708
 O        -2.384199        -0.726470         1.365612
 C        -3.697292        -0.860161         1.592297
 C        -4.251204        -0.784132         3.067243
 O        -4.487082        -1.145504         0.743387
 H         2.419074         1.154040        -0.101886
 H         2.580087        -0.573907         0.384828
 H         2.316734         0.042419        -1.368081
 H        -2.148835        -1.749557        -0.426094
 H        -3.638468        -0.068850        -1.038886
 H        -2.454684         1.234914        -0.556461
 H        -2.249938         0.303376        -2.073273
 H        -4.581647        -1.776943         3.395560
 H        -3.507049        -0.547802         3.798847
 H        -5.039614        -0.081789         3.001864
