19
Iteration:  2592charge 0 multiplicity 1
 C         1.947191        -0.121112         0.212742
 C         0.547886        -0.294966        -0.033950
 C        -0.659284        -0.356630        -0.212874
 C        -2.172804        -0.279823        -0.287736
 C        -2.812586         0.815746        -1.057345
 O        -2.643016        -0.117811         1.100804
 C        -3.482979        -1.120576         1.635538
 C        -3.957790        -0.726732         2.982581
 O        -3.736314        -2.068924         0.962900
 H         2.622041        -0.377820        -0.514513
 H         2.075782         0.844883         0.752866
 H         2.273903        -0.878401         1.014695
 H        -2.601848        -1.165696        -0.777712
 H        -2.165134         1.739576        -1.280012
 H        -3.030403         0.460434        -2.040586
 H        -3.723894         1.105545        -0.587098
 H        -3.109105        -0.671464         3.678023
 H        -4.631034         0.103938         2.980516
 H        -4.652697        -1.506184         3.200854
