19
Iteration:  3835
 C         2.221007        -0.110634        -0.461211
 C         0.745497        -0.332573        -0.293778
 C        -0.474319        -0.359246         0.053392
 C        -1.999077        -0.625401         0.021108
 C        -2.636582         0.614299        -0.665852
 O        -2.423132        -0.530260         1.409481
 C        -3.788516        -0.964079         1.596421
 C        -4.198712        -0.453353         2.942592
 O        -4.334368        -1.566341         0.748638
 H         2.486882        -0.701940        -1.390217
 H         2.441746         0.961985        -0.555181
 H         2.677722        -0.514114         0.410274
 H        -2.354912        -1.600964        -0.401101
 H        -3.748116         0.352446        -0.940983
 H        -2.647678         1.514429        -0.055312
 H        -2.252106         0.918662        -1.642647
 H        -5.251264        -0.751930         3.123474
 H        -3.629029        -0.866086         3.788092
 H        -4.140230         0.661984         3.143476
