19
Iteration:  2728charge 0 multiplicity 1
 C         2.085666         0.085275        -0.164720
 C         0.629284        -0.279027        -0.179761
 C        -0.569140        -0.295136         0.024726
 C        -1.934060        -0.486007        -0.010163
 C        -2.628442         0.415951        -1.055612
 O        -2.448415        -0.266287         1.353866
 C        -3.664836        -1.038944         1.642397
 C        -4.180994        -0.812508         2.985448
 O        -4.237611        -1.594634         0.774450
 H         2.282950         0.999608        -0.719751
 H         2.449022         0.268241         0.872861
 H         2.657944        -0.793473        -0.527803
 H        -2.133117        -1.462783        -0.452546
 H        -3.575048         0.595297        -0.615964
 H        -2.234526         1.420367        -1.235862
 H        -2.638485        -0.276291        -1.929069
 H        -4.889629         0.055547         2.997182
 H        -4.586645        -1.759535         3.350727
 H        -3.313178        -0.675677         3.621632
