19
Iteration:  2558charge 0 multiplicity 1
 C         1.847048        -0.180061         0.115450
 C         0.367158        -0.345853         0.154265
 C        -0.805657        -0.297992        -0.136333
 C        -2.256551        -0.177103        -0.251966
 C        -2.591814         0.820554        -1.252791
 O        -2.729785         0.004446         1.160859
 C        -3.375494        -1.082960         1.611132
 C        -3.893076        -0.901101         2.997441
 O        -3.622540        -2.095440         0.985824
 H         2.395621        -0.515121        -0.715125
 H         2.121407         0.890633         0.117893
 H         2.108031        -0.667691         1.110964
 H        -2.628285        -1.166828        -0.569914
 H        -1.837386         1.690668        -1.386076
 H        -2.596190         0.303730        -2.176776
 H        -3.574433         1.226597        -1.262529
 H        -3.286093        -1.383899         3.791866
 H        -3.846564         0.145666         3.218908
 H        -4.820838        -1.430354         3.001622
