19
Iteration:  4734charge 0 multiplicity 1
 C         2.044056        -0.647698        -0.457692
 C         0.659278        -0.393148        -0.012406
 C        -0.538151        -0.261113        -0.152586
 C        -1.956162        -0.463510        -0.303489
 C        -2.764698         0.606893        -0.930922
 O        -2.384396        -0.518668         1.335144
 C        -3.583109        -0.777375         1.724869
 C        -3.886194        -0.574401         3.154792
 O        -4.500499        -1.214172         0.969612
 H         2.484971         0.430005        -0.645653
 H         2.739942        -0.963969         0.416444
 H         2.167116        -1.371878        -1.290322
 H        -2.154725        -1.559511        -0.723092
 H        -3.817704         0.264082        -1.134229
 H        -2.894938         1.442842        -0.200463
 H        -2.358215         1.008874        -1.803266
 H        -3.059980        -0.945821         3.751070
 H        -4.006581         0.454597         3.490311
 H        -4.754468        -1.229919         3.318435
