19
Iteration:  1484
 C         1.768464         0.125550         0.044874
 C         0.350210         0.010056         0.042130
 C        -0.799233        -0.400830        -0.043108
 C        -2.211946        -0.278536        -0.258362
 C        -2.689497         0.876426        -1.076306
 O        -2.909383        -0.057059         1.029944
 C        -3.368479        -1.220465         1.603159
 C        -3.913756        -1.051048         3.062541
 O        -3.297269        -2.226883         1.017260
 H         2.168156         1.180950         0.204532
 H         2.270962        -0.479526         0.730828
 H         2.076993        -0.243202        -1.043860
 H        -2.546549        -1.257873        -0.717530
 H        -2.500250         1.824172        -0.593227
 H        -2.118572         1.005885        -2.091778
 H        -3.745163         0.691757        -1.322754
 H        -2.965695        -1.131473         3.575279
 H        -4.569411        -0.187766         3.136924
 H        -4.490390        -1.935869         3.190262
