19
Iteration:  2709charge 0 multiplicity 1
 C         2.183612         0.010389        -0.078625
 C         0.712639        -0.206100        -0.132080
 C        -0.510720        -0.322916        -0.044453
 C        -1.997415        -0.473034        -0.078185
 C        -2.832066         0.478760        -0.953161
 O        -2.517668        -0.299972         1.352102
 C        -3.697043        -1.012274         1.543396
 C        -4.048182        -0.690911         2.992598
 O        -4.194902        -1.765924         0.750650
 H         2.313619         0.856669        -0.875646
 H         2.363283         0.300110         0.898387
 H         2.752125        -0.784873        -0.358043
 H        -2.121874        -1.542115        -0.281044
 H        -3.745964         1.041633        -0.486980
 H        -2.203154         1.300339        -1.208172
 H        -3.134836        -0.021249        -1.853548
 H        -4.528290         0.326247         2.837125
 H        -4.829716        -1.437652         3.205882
 H        -3.298606        -0.729568         3.803737
