19
Iteration:  3613
 C         2.147438        -0.087118         0.240120
 C         0.720034        -0.122271        -0.093202
 C        -0.502531        -0.226875        -0.238171
 C        -1.946643        -0.634465        -0.287471
 C        -2.915302         0.097514        -1.258784
 O        -2.436382        -0.499920         1.142796
 C        -3.666931        -0.855388         1.645339
 C        -3.664852        -0.692697         3.212803
 O        -4.637582        -1.177751         0.942503
 H         2.606509        -0.598605        -0.620468
 H         2.437189         0.928446         0.211582
 H         2.434191        -0.607810         1.155960
 H        -2.092923        -1.768468        -0.566202
 H        -3.899886        -0.282132        -1.054770
 H        -3.007444         1.257528        -1.067566
 H        -2.585065        -0.163617        -2.342047
 H        -4.447270         0.017003         3.516037
 H        -3.789561        -1.712197         3.708891
 H        -2.647025        -0.286110         3.361161
