19
Iteration:  4219
 C         1.194377        -1.576875         0.182669
 C         0.293936        -0.487092        -0.079520
 C        -0.849070        -0.050209        -0.180315
 C        -2.255724         0.122382        -0.420581
 C        -2.801511         1.414063        -1.101929
 O        -3.049139         0.209747         0.948592
 C        -3.052703        -0.969673         1.679919
 C        -3.943424        -0.811544         2.967352
 O        -2.545089        -1.981275         1.283446
 H         0.785438        -2.584143         0.335434
 H         1.998685        -1.589840        -0.573928
 H         1.730861        -1.391554         1.086526
 H        -2.708284        -0.809081        -0.852203
 H        -3.751516         1.555310        -0.688324
 H        -2.345079         2.431761        -0.888239
 H        -2.807547         1.121667        -2.151550
 H        -4.996109        -0.586187         2.715450
 H        -3.942858        -1.815193         3.422320
 H        -3.552293         0.006517         3.629770
