19
Iteration:  4094charge 0 multiplicity 1
 C         1.181147        -1.149075         0.542580
 C         0.013651        -0.631881        -0.061781
 C        -1.087206        -0.325280        -0.329392
 C        -2.463005         0.041020        -0.466065
 C        -2.484807         1.526589        -0.933872
 O        -3.148603         0.110496         0.793151
 C        -3.096178        -1.024813         1.569912
 C        -3.343431        -0.691016         3.019471
 O        -2.736367        -2.130960         1.086428
 H         1.220539        -2.207959         0.366491
 H         2.122679        -0.671141         0.420301
 H         0.963572        -1.072534         1.580845
 H        -3.163007        -0.509497        -1.056561
 H        -3.607916         1.809949        -0.999454
 H        -1.830774         2.133676        -0.284660
 H        -2.221485         1.593983        -1.992524
 H        -2.999114         0.306538         3.157850
 H        -4.339715        -0.939870         3.369714
 H        -2.718653        -1.397561         3.573514
