19
Iteration:  2800charge 0 multiplicity 1
 C         2.095983         0.175221        -0.442627
 C         0.750742        -0.162813        -0.002488
 C        -0.430302        -0.349380         0.344165
 C        -1.908212        -0.683247         0.018569
 C        -2.482667         0.228330        -0.989108
 O        -2.551496        -0.425412         1.311543
 C        -3.805570        -0.890879         1.505303
 C        -4.004379        -0.886707         3.035340
 O        -4.578258        -1.299302         0.682662
 H         2.048967         1.232245        -0.563427
 H         2.939608         0.027390         0.244165
 H         2.354945        -0.318545        -1.401151
 H        -2.173611        -1.743694        -0.242778
 H        -3.246849        -0.249954        -1.549484
 H        -3.130088         0.972165        -0.459577
 H        -1.604827         0.625150        -1.554872
 H        -4.921557        -1.249484         3.430166
 H        -3.086407        -1.315768         3.452501
 H        -3.814733         0.125314         3.431607
