19
Iteration:  2769
 C         2.064607         0.127423        -0.349382
 C         0.693572        -0.072712        -0.046697
 C        -0.466288        -0.508061         0.088031
 C        -1.967393        -0.557035        -0.013335
 C        -2.448788         0.273840        -1.050429
 O        -2.520022        -0.291735         1.403716
 C        -3.736379        -0.909282         1.598031
 C        -4.127946        -0.926699         3.080450
 O        -4.424345        -1.405071         0.715864
 H         2.160326         1.125166        -0.697550
 H         2.869219         0.182075         0.519505
 H         2.496781        -0.633216        -1.186045
 H        -2.342995        -1.609757        -0.097433
 H        -3.271133        -0.204930        -1.508120
 H        -2.668767         1.366191        -0.767360
 H        -1.630774         0.374080        -1.872771
 H        -5.191178        -0.817823         3.199804
 H        -3.920555        -1.936310         3.484783
 H        -3.644817        -0.147287         3.658410
