19
Iteration:   218charge 0 multiplicity 1
 C         1.506120         0.259301         0.394130
 C         0.121714        -0.065556         0.102660
 C        -1.010233        -0.036743        -0.298176
 C        -2.422632        -0.078846        -0.498460
 C        -2.890664         1.236887        -1.101417
 O        -3.240370        -0.289803         0.843847
 C        -3.036348        -1.460214         1.617792
 C        -3.740023        -1.279392         3.000015
 O        -2.443598        -2.457449         1.249942
 H         2.184171        -0.079188        -0.479075
 H         1.704284         1.314910         0.640201
 H         1.741095        -0.324293         1.184310
 H        -2.603999        -1.004993        -1.097523
 H        -3.122321         2.044203        -0.422842
 H        -2.170369         1.430070        -1.798184
 H        -3.825830         0.946781        -1.573632
 H        -4.410673        -2.113040         3.077360
 H        -2.854219        -1.256056         3.649243
 H        -4.115872        -0.265333         3.036688
