19
Iteration:   351charge 0 multiplicity 1
 C         1.595128        -0.196592         0.362479
 C         0.208692         0.034116         0.021830
 C        -0.999043         0.022398        -0.123989
 C        -2.471833        -0.050975        -0.334582
 C        -3.098445         0.969908        -1.105927
 O        -3.355720        -0.139130         0.863504
 C        -3.007965        -1.292294         1.596409
 C        -3.903694        -1.465995         2.851243
 O        -2.082356        -1.975986         1.193630
 H         2.318318         0.682056         0.294246
 H         1.695040        -0.679578         1.335762
 H         1.987814        -0.889974        -0.283798
 H        -2.618080        -1.087855        -0.778759
 H        -3.434151         1.754227        -0.521696
 H        -2.400598         1.342459        -1.887167
 H        -3.984891         0.606878        -1.560177
 H        -3.489523        -2.137121         3.643202
 H        -4.089220        -0.458184         3.283041
 H        -4.917675        -1.862069         2.666995
