19
Iteration:  2908
 C         1.993531         0.227901        -0.062075
 C         0.665467        -0.272429        -0.190035
 C        -0.520604        -0.517181        -0.074663
 C        -1.998572        -0.681411        -0.108207
 C        -2.638260         0.406530        -0.885540
 O        -2.354272        -0.578935         1.361505
 C        -3.616615        -0.930520         1.563810
 C        -4.040245        -0.649287         3.041474
 O        -4.406534        -1.347412         0.648323
 H         1.872063         1.171845         0.785212
 H         2.548946        -0.523888         0.491139
 H         2.459200         0.534044        -0.976708
 H        -2.367915        -1.654101        -0.493980
 H        -3.607142         0.584406        -0.534170
 H        -1.997184         1.347301        -0.899913
 H        -2.756390         0.053676        -1.959742
 H        -3.698595        -1.586031         3.544181
 H        -3.384880         0.082579         3.562283
 H        -5.139509        -0.528519         3.218076
