19
Iteration:   947
 C         1.963443         0.701015        -0.201973
 C         0.577825         0.296111         0.053911
 C        -0.591985        -0.002239        -0.035683
 C        -1.916745        -0.546248        -0.127052
 C        -2.851571         0.330419        -0.944280
 O        -2.498881        -0.402658         1.379504
 C        -3.573964        -1.293906         1.535871
 C        -4.035914        -1.179207         2.999422
 O        -4.019167        -2.031629         0.706595
 H         2.307664         1.639081         0.449320
 H         2.719274        -0.091383        -0.126699
 H         2.020124         1.060548        -1.179872
 H        -1.985503        -1.551757        -0.401833
 H        -3.232797         1.124293        -0.313337
 H        -2.412628         0.856380        -1.730530
 H        -3.624196        -0.313581        -1.377063
 H        -4.905195        -0.566545         3.280131
 H        -4.426344        -2.198733         3.311410
 H        -3.124818        -1.021730         3.668371
