19
Iteration:  2883
 C         2.065174         0.230240        -0.137961
 C         0.683088        -0.034043        -0.224317
 C        -0.448250        -0.511229        -0.150036
 C        -1.913296        -0.788775         0.035282
 C        -2.656651         0.272452        -0.861860
 O        -2.374081        -0.635211         1.465620
 C        -3.661483        -0.930295         1.534280
 C        -4.109714        -0.697744         2.986417
 O        -4.461667        -1.182020         0.643635
 H         2.355001         1.173225         0.466356
 H         2.356863        -0.650129         0.462969
 H         2.553828         0.205246        -1.161065
 H        -2.260860        -1.789611        -0.272664
 H        -3.764543         0.325020        -0.546202
 H        -2.134065         1.223073        -0.713655
 H        -2.650397         0.059021        -1.901661
 H        -4.121999        -1.737698         3.374634
 H        -3.401181        -0.204161         3.708268
 H        -5.174888        -0.342340         2.968036
