19
Iteration:   446
 C         1.718581         0.143296         0.260732
 C         0.279611         0.150186        -0.106091
 C        -0.920885        -0.064763        -0.172487
 C        -2.369666        -0.162027        -0.377971
 C        -3.065660         1.026242        -0.980524
 O        -3.148602        -0.245319         0.898599
 C        -3.086869        -1.365776         1.633157
 C        -3.958364        -1.240155         2.799270
 O        -2.540718        -2.375971         1.351409
 H         1.910182         0.555646         1.141259
 H         2.126180        -0.912381         0.323387
 H         2.569822         0.638929        -0.440035
 H        -2.542846        -0.976327        -1.037658
 H        -2.792557         2.002666        -0.616043
 H        -2.863255         0.959167        -2.088821
 H        -4.151358         1.153907        -0.755277
 H        -3.461748        -0.749905         3.588798
 H        -4.812923        -0.700328         2.483570
 H        -4.190264        -2.223949         3.049678
