19
Iteration:  2548
 C         1.813654        -0.199702         0.100456
 C         0.379807        -0.307946         0.121075
 C        -0.803228        -0.320499        -0.090598
 C        -2.203538        -0.213319        -0.190998
 C        -2.585027         0.887544        -1.319966
 O        -2.843444         0.051659         1.067204
 C        -3.330405        -1.093283         1.628050
 C        -3.862495        -0.947471         3.027898
 O        -3.611726        -2.108904         1.008418
 H         2.242026        -0.820381        -0.606449
 H         2.103953         0.892483         0.181203
 H         2.378639        -0.626209         1.106487
 H        -2.686156        -1.162373        -0.455582
 H        -1.818001         1.775244        -1.158292
 H        -2.279040         0.295090        -2.161367
 H        -3.602690         1.200410        -1.270636
 H        -3.275321        -1.600598         3.713121
 H        -3.872889         0.080284         3.361383
 H        -4.918789        -1.116879         3.087556
