19
Iteration:   647charge 0 multiplicity 1
 C         1.890164         0.508890         0.199757
 C         0.475760         0.356940        -0.178552
 C        -0.715173         0.039932        -0.090118
 C        -2.098634        -0.354606        -0.195948
 C        -3.175930         0.407342        -1.053782
 O        -2.531915        -0.263670         1.251680
 C        -3.431346        -1.322692         1.544430
 C        -3.839532        -1.191108         3.036792
 O        -3.597641        -2.265533         0.744818
 H         2.650880        -0.324653        -0.117201
 H         2.415761         1.321967        -0.225789
 H         2.000551         0.690994         1.386669
 H        -2.087888        -1.381464        -0.467764
 H        -3.385949         1.370398        -0.484791
 H        -2.852742         0.753606        -1.997378
 H        -4.072227        -0.209093        -1.303815
 H        -4.969260        -1.281870         3.107393
 H        -3.507425        -1.971040         3.858600
 H        -3.472494        -0.179029         3.456397
