19
Iteration:   884
 C         2.035272         0.936292        -0.260463
 C         0.582579         0.469488        -0.075178
 C        -0.559104         0.009120        -0.022223
 C        -1.864009        -0.679948        -0.044016
 C        -2.712644         0.292072        -0.937525
 O        -2.383964        -0.793043         1.357420
 C        -3.605186        -1.331694         1.596731
 C        -4.173987        -1.130935         3.057138
 O        -4.257413        -1.840822         0.711505
 H         2.047317         2.023337        -0.139468
 H         2.724333         0.392531         0.584351
 H         2.415947         0.647683        -1.192119
 H        -1.747233        -1.669241        -0.563477
 H        -2.368302         1.346326        -0.809471
 H        -2.677444        -0.090927        -1.883036
 H        -3.800424         0.238118        -0.652347
 H        -4.034038        -0.244223         3.584099
 H        -5.079190        -1.651765         2.920447
 H        -3.758640        -1.967019         3.595416
