19
Iteration:   507charge 0 multiplicity 1
 C         1.590770         0.506411         0.072668
 C         0.248935        -0.093577         0.065755
 C        -0.941919        -0.212341        -0.061338
 C        -2.291927        -0.132609        -0.365948
 C        -2.747513         1.041390        -1.220724
 O        -3.021996        -0.132495         1.045351
 C        -3.153658        -1.406259         1.678250
 C        -3.844068        -1.277144         2.951746
 O        -2.904729        -2.489866         1.180353
 H         1.978717         0.295922         1.214569
 H         2.242624        -0.075919        -0.556343
 H         1.527081         1.479542        -0.151973
 H        -2.587424        -1.184725        -0.712841
 H        -2.673693         2.035468        -0.642488
 H        -2.013455         1.078412        -2.004352
 H        -3.702604         0.794465        -1.740478
 H        -3.830655        -0.285021         3.536233
 H        -4.975617        -1.439795         2.746058
 H        -3.549648        -2.205490         3.579776
