19
Iteration:  2198
 C         1.603411        -0.571049         0.318513
 C         0.267263        -0.478495        -0.037848
 C        -0.935882        -0.328469        -0.144888
 C        -2.380147        -0.080579        -0.381944
 C        -2.672801         1.340441        -1.173106
 O        -3.261918        -0.014182         0.751521
 C        -3.148897        -1.103365         1.712144
 C        -3.992216        -0.955875         2.947234
 O        -2.564753        -2.103943         1.344703
 H         1.758282         0.116850         1.091980
 H         2.040207        -1.542967         0.631324
 H         2.291639        -0.177525        -0.554645
 H        -2.649901        -0.834945        -1.183502
 H        -2.381503         2.157194        -0.599193
 H        -2.226904         1.223894        -2.163320
 H        -3.784430         1.540976        -1.119553
 H        -3.778859        -0.135158         3.605751
 H        -5.029446        -0.788804         2.613562
 H        -3.983344        -1.882037         3.574759
