19
Iteration:  2578charge 0 multiplicity 1
 C         1.874791        -0.143183         0.224717
 C         0.441882        -0.345817         0.030538
 C        -0.749609        -0.337181        -0.169946
 C        -2.129880        -0.296366        -0.245699
 C        -2.767367         0.889494        -1.242761
 O        -2.617908        -0.090889         1.167439
 C        -3.450770        -1.055441         1.556380
 C        -3.999043        -0.812155         3.046119
 O        -3.653107        -2.093677         0.934453
 H         2.408901        -0.315769        -0.818143
 H         2.117983         0.881610         0.355347
 H         2.237496        -0.742040         1.020088
 H        -2.499929        -1.343767        -0.392973
 H        -2.012558         1.729793        -1.244487
 H        -2.974356         0.411431        -2.152264
 H        -3.690572         1.314433        -0.825830
 H        -3.109217        -0.872130         3.731010
 H        -4.159966         0.261426         3.122955
 H        -4.719858        -1.507328         3.497125
