19
Iteration:  1358charge 0 multiplicity 1
 C         1.563589        -0.399611         0.386015
 C         0.171798        -0.171257        -0.040437
 C        -0.998482        -0.033377        -0.274505
 C        -2.424069         0.006660        -0.379684
 C        -2.984174         1.138515        -1.215426
 O        -3.005571        -0.072798         0.986772
 C        -3.089217        -1.217998         1.609647
 C        -3.939960        -1.125922         2.825253
 O        -2.428334        -2.263643         1.369580
 H         2.171603         0.099731        -0.316957
 H         1.728571         0.107308         1.463409
 H         1.920923        -1.454254         0.398015
 H        -2.721621        -0.875114        -0.956317
 H        -3.183216         2.029685        -0.547270
 H        -2.272253         1.395159        -1.885069
 H        -3.972681         0.890335        -1.700319
 H        -4.615166        -2.028346         2.845896
 H        -3.248547        -1.261765         3.705807
 H        -4.528474        -0.221249         2.684113
