19
Iteration:  3805charge 0 multiplicity 1
 C         2.003469         0.095253        -0.563861
 C         0.791360        -0.324267        -0.081512
 C        -0.389135        -0.663909         0.076956
 C        -1.885829        -0.638824         0.079376
 C        -2.450484         0.569280        -0.676931
 O        -2.418736        -0.568477         1.380223
 C        -3.812028        -0.909828         1.579149
 C        -4.129415        -0.460976         2.948726
 O        -4.552081        -1.457053         0.708403
 H         2.086407        -0.424942        -1.470680
 H         2.056285         1.170180        -0.779625
 H         2.902052        -0.142520        -0.034821
 H        -2.211790        -1.666545        -0.279074
 H        -3.531467         0.115817        -0.859257
 H        -2.681686         1.479091        -0.168735
 H        -2.041658         0.647845        -1.722802
 H        -5.204070        -0.575355         3.078778
 H        -3.678280        -1.102168         3.703710
 H        -3.808684         0.563759         3.098902
