19
Iteration:  3321charge 0 multiplicity 1
 C         1.694757        -0.998111         0.128271
 C         0.328942        -0.584934        -0.100233
 C        -0.814764        -0.158460        -0.138616
 C        -2.253858        -0.025962        -0.448242
 C        -2.746038         1.199893        -1.212244
 O        -3.081913         0.082581         0.859458
 C        -3.234514        -1.040247         1.740731
 C        -4.431702        -0.721042         2.556908
 O        -2.548976        -2.008358         1.897465
 H         1.807691        -2.082267         0.106069
 H         2.289381        -0.642347        -0.777717
 H         2.169399        -0.395726         0.926744
 H        -2.394938        -0.968618        -1.049762
 H        -3.812792         1.200973        -1.206850
 H        -2.163121         1.973013        -0.524362
 H        -2.291995         1.441400        -2.266005
 H        -4.986241         0.198753         2.389988
 H        -5.003217        -1.609702         2.690461
 H        -4.107892        -0.686233         3.623549
