19
Iteration:   366
 C         1.567474        -0.215963         0.314281
 C         0.196596         0.129450         0.073644
 C        -0.989096         0.014668        -0.093945
 C        -2.390806        -0.182175        -0.286629
 C        -3.195105         1.045564        -1.144453
 O        -3.202886        -0.198478         0.912699
 C        -3.024465        -1.278147         1.593853
 C        -3.941244        -1.378091         2.788972
 O        -2.159371        -2.027288         1.225262
 H         2.202016         0.741246         0.460770
 H         1.688807        -0.829738         1.224297
 H         1.929823        -0.723948        -0.593371
 H        -2.521897        -1.069601        -0.932806
 H        -3.358525         1.937668        -0.447370
 H        -2.602780         1.409797        -1.968053
 H        -4.010919         0.518200        -1.651199
 H        -3.249387        -1.825616         3.525414
 H        -4.322626        -0.407249         3.171276
 H        -4.705473        -2.090792         2.378707
