19
Iteration:   511charge 0 multiplicity 1
 C         1.587821         0.503446         0.092237
 C         0.280004        -0.087140         0.058506
 C        -0.922994        -0.220586        -0.037618
 C        -2.268476        -0.148132        -0.414518
 C        -2.739597         1.048255        -1.227072
 O        -3.037193        -0.124035         1.072708
 C        -3.189887        -1.381916         1.669660
 C        -3.841992        -1.301689         2.997875
 O        -2.921580        -2.500807         1.169886
 H         1.955955         0.313440         1.040127
 H         2.256190        -0.070996        -0.643966
 H         1.498899         1.673032        -0.153348
 H        -2.601031        -1.139408        -0.805582
 H        -2.770809         1.946340        -0.648770
 H        -2.000234         1.008798        -2.074117
 H        -3.723328         0.839057        -1.707018
 H        -3.798085        -0.329115         3.386699
 H        -4.875882        -1.457218         2.795213
 H        -3.545049        -2.089212         3.588464
