19
Iteration:   983charge 0 multiplicity 1
 C         1.941715         0.644599        -0.080600
 C         0.541790         0.187821        -0.107174
 C        -0.647986        -0.123648        -0.011393
 C        -2.081962        -0.394926        -0.157733
 C        -2.844107         0.534005        -1.136682
 O        -2.554787        -0.301034         1.353014
 C        -3.405796        -1.334568         1.615870
 C        -4.085683        -1.228625         3.059230
 O        -3.816790        -2.133538         0.813042
 H         2.180373         1.065964         0.895715
 H         2.718540        -0.256163        -0.220045
 H         2.086417         1.408216        -0.825746
 H        -2.278315        -1.447470        -0.326575
 H        -3.444213         1.282770        -0.614855
 H        -2.098165         1.003030        -1.781738
 H        -3.632617        -0.078997        -1.584699
 H        -5.169483        -1.084834         2.896594
 H        -3.899678        -2.257513         3.425537
 H        -3.627685        -0.440258         3.622619
