19
Iteration:  2157
 C         1.602555        -0.473768         0.346731
 C         0.258324        -0.296564        -0.113014
 C        -0.937903        -0.327477        -0.324339
 C        -2.362102        -0.070502        -0.340866
 C        -2.638725         1.122142        -1.209234
 O        -2.983420         0.091757         0.998454
 C        -3.215364        -1.100190         1.660281
 C        -4.114407        -1.065003         2.905120
 O        -2.727096        -2.120301         1.320721
 H         1.942083         0.488880         0.907767
 H         1.653489        -1.397842         0.992732
 H         2.194921        -0.536405        -0.466476
 H        -2.892528        -1.040462        -0.617076
 H        -1.887178         1.945170        -0.944138
 H        -2.445695         0.813507        -2.206650
 H        -3.658489         1.557616        -1.090402
 H        -3.388211        -0.850038         3.672646
 H        -4.797299        -0.265049         2.658279
 H        -4.541324        -2.055045         3.210128
