19
Iteration:  3675
 C         2.045058         0.129376        -0.177608
 C         0.650328        -0.163392        -0.069441
 C        -0.510705        -0.422703         0.017774
 C        -1.940636        -0.757708        -0.075251
 C        -2.609804         0.040565        -1.313635
 O        -2.391924        -0.570796         1.352382
 C        -3.692111        -0.810517         1.688045
 C        -3.924679        -0.838184         3.189707
 O        -4.591743        -0.875257         0.797689
 H         2.357135        -0.271153        -1.158012
 H         2.323081         1.238675        -0.339860
 H         2.812034        -0.354494         0.521165
 H        -1.885114        -1.819900        -0.103731
 H        -3.462358        -0.631799        -1.590756
 H        -2.880213         0.991983        -1.093892
 H        -2.050810         0.027238        -2.221646
 H        -4.836823        -0.361826         3.515982
 H        -3.878195        -1.817625         3.628502
 H        -3.091093        -0.303737         3.652451
