19
Iteration:  4455charge 0 multiplicity 1
 C         2.057920        -0.839291        -0.326203
 C         0.633575        -0.358578        -0.405369
 C        -0.602635        -0.203425        -0.202454
 C        -2.036622        -0.279549         0.034925
 C        -2.814123         0.668684        -0.895540
 O        -2.349460        -0.196843         1.376074
 C        -3.576830        -0.869564         1.722816
 C        -4.081172        -0.647691         3.085256
 O        -4.150684        -1.490526         0.895711
 H         2.338455        -0.732929         0.762118
 H         2.177610        -1.890644        -0.723666
 H         2.628473        -0.043512        -0.940062
 H        -2.529805        -1.359897        -0.270342
 H        -3.800157         0.393206        -1.203333
 H        -3.041630         1.541885        -0.382259
 H        -2.099682         0.932769        -1.704735
 H        -3.736031        -1.300580         3.874034
 H        -3.837302         0.350610         3.410278
 H        -5.156058        -0.856232         2.989442
