19
Iteration:  2107charge 0 multiplicity 1
 C         1.755974        -0.380368         0.238604
 C         0.339176        -0.349747         0.162723
 C        -0.810600        -0.173209        -0.243864
 C        -2.300760        -0.143078        -0.332634
 C        -2.868652         1.043917        -1.059158
 O        -2.891148        -0.046171         0.940271
 C        -3.299368        -1.130335         1.578403
 C        -4.031179        -0.754347         2.863339
 O        -2.928958        -2.271307         1.211852
 H         2.108438         0.640511         0.267168
 H         2.029347        -0.917504         1.128685
 H         2.214354        -0.869462        -0.729122
 H        -2.746236        -1.011074        -0.752763
 H        -2.845626         2.078101        -0.616714
 H        -2.495751         0.924106        -2.107473
 H        -3.921836         0.875346        -1.053522
 H        -3.710541        -1.541416         3.571862
 H        -3.969814         0.319802         3.028916
 H        -5.033468        -1.114863         2.662363
