19
Iteration:  1705
 C         1.961000         0.527116        -0.322949
 C         0.523734         0.238608        -0.132144
 C        -0.561643        -0.194021         0.208922
 C        -1.940836        -0.651664        -0.014207
 C        -2.413019         0.242402        -1.174714
 O        -2.535678        -0.515346         1.429401
 C        -3.685292        -1.085622         1.641511
 C        -3.964040        -1.135940         3.111931
 O        -4.394615        -1.559450         0.700949
 H         2.608135        -0.226672         0.328829
 H         2.101792         0.317661        -1.365812
 H         2.424919         1.519858        -0.179680
 H        -2.021855        -1.714889        -0.356089
 H        -2.340999         1.352679        -0.804625
 H        -1.832036        -0.104291        -2.025141
 H        -3.524464         0.090656        -1.367198
 H        -4.890222        -1.602135         3.357523
 H        -3.169004        -1.853073         3.264880
 H        -3.633458        -0.199395         3.570395
