19
Iteration:  2101
 C         1.792473        -0.390963         0.234031
 C         0.355375        -0.356445         0.125377
 C        -0.752870        -0.125026        -0.237717
 C        -2.250650        -0.155884        -0.367002
 C        -2.896227         1.072093        -1.105043
 O        -2.939748        -0.044288         0.929669
 C        -3.285442        -1.161548         1.617390
 C        -4.054302        -0.781047         2.883466
 O        -2.999564        -2.270523         1.226848
 H         2.068375         0.724897         0.225918
 H         2.261451        -0.833793         1.161171
 H         2.248467        -0.875759        -0.598757
 H        -2.496385        -1.201323        -0.840732
 H        -2.846320         1.958911        -0.483635
 H        -2.494617         1.093696        -2.136346
 H        -4.006512         0.797146        -1.055995
 H        -3.685577        -1.466440         3.646122
 H        -3.844393         0.208569         3.379390
 H        -5.158212        -0.925830         2.710667
