19
Iteration:   762
 C         1.862221         0.963870        -0.100387
 C         0.528901         0.370815        -0.056574
 C        -0.552053        -0.222605        -0.013128
 C        -1.938194        -0.629199        -0.141987
 C        -2.651702         0.392940        -0.990359
 O        -2.479700        -0.590931         1.179701
 C        -3.598080        -1.298549         1.594476
 C        -3.902444        -1.181557         3.138822
 O        -4.254469        -1.981545         0.777399
 H         2.136481         1.399191        -1.115119
 H         1.868519         1.842077         0.718707
 H         2.575093         0.322630         0.216995
 H        -1.984929        -1.623364        -0.672945
 H        -2.588093         1.365052        -0.515660
 H        -2.110431         0.429944        -1.951235
 H        -3.592564        -0.032273        -1.249273
 H        -3.351923        -2.043609         3.469194
 H        -3.327818        -0.372636         3.553659
 H        -4.973987        -1.226616         3.378081
