19
Iteration:  4067charge 0 multiplicity 1
 C         1.455137        -0.995149         0.510800
 C        -0.007766        -0.770809         0.122804
 C        -1.111118        -0.445865        -0.325384
 C        -2.538187         0.120310        -0.529685
 C        -2.478378         1.646108        -0.976384
 O        -3.165897         0.089561         0.751384
 C        -3.071806        -1.104146         1.556619
 C        -3.266129        -0.704769         3.019795
 O        -2.998473        -2.189951         1.145092
 H         1.617273        -2.049918         0.146496
 H         2.211326        -0.228007         0.139735
 H         1.614279        -1.030868         1.651957
 H        -3.258296        -0.463072        -1.192249
 H        -3.398841         2.066915        -0.727213
 H        -1.581559         2.150949        -0.601519
 H        -2.472225         1.729711        -2.086031
 H        -2.691777         0.247057         3.217349
 H        -4.344255        -0.549318         3.238274
 H        -2.951802        -1.560790         3.631115
