19
Iteration:  2841charge 0 multiplicity 1
 C         2.175012         0.200193        -0.383790
 C         0.713474        -0.122257        -0.016211
 C        -0.498576        -0.332783         0.124593
 C        -1.863294        -0.675567        -0.056430
 C        -2.573797         0.232081        -1.025355
 O        -2.403050        -0.688228         1.405880
 C        -3.769163        -0.968938         1.606020
 C        -4.138436        -0.788274         3.037419
 O        -4.564563        -1.152007         0.743182
 H         2.385545         1.366276        -0.115511
 H         2.969120        -0.197411         0.193971
 H         2.406746        -0.045598        -1.395457
 H        -1.809417        -1.747284        -0.306767
 H        -3.536721        -0.106232        -1.522062
 H        -2.741277         1.264412        -0.673765
 H        -1.802010         0.314569        -1.768888
 H        -4.782795        -1.663921         3.232089
 H        -3.351527        -0.650581         3.830274
 H        -4.915738         0.046696         3.034722
