19
Iteration:  4981charge 0 multiplicity 1
 C         1.664841        -1.018097        -0.151514
 C         0.286544        -0.735107        -0.130213
 C        -0.864373        -0.415785        -0.229654
 C        -2.288631        -0.001561        -0.229751
 C        -2.623852         1.276003        -0.855118
 O        -2.773643         0.187492         1.133483
 C        -3.215376        -0.925558         1.720854
 C        -3.911260        -0.620722         2.947566
 O        -3.307527        -2.021404         1.113651
 H         1.951602        -1.553826        -1.081639
 H         2.378018        -0.221918         0.110246
 H         1.859279        -1.948936         0.553737
 H        -2.719192        -0.881615        -0.731798
 H        -3.749958         1.254012        -0.787188
 H        -2.159205         2.196642        -0.477268
 H        -2.467136         1.238311        -1.884578
 H        -4.966739        -0.638188         2.611468
 H        -3.887171        -1.465658         3.700870
 H        -3.604182         0.326362         3.488991
