19
Iteration:  1670charge 0 multiplicity 1
 C         2.085710         0.459374        -0.223268
 C         0.619122         0.188115        -0.159742
 C        -0.539502        -0.100858         0.024655
 C        -1.881035        -0.536581         0.003031
 C        -2.729998         0.183658        -0.987665
 O        -2.511939        -0.411420         1.376017
 C        -3.626774        -1.147108         1.606640
 C        -3.990560        -1.132137         3.021547
 O        -4.339508        -1.627039         0.702194
 H         2.593169        -0.018745         0.600574
 H         2.438357        -0.117533        -1.022317
 H         2.405795         1.596611        -0.337853
 H        -1.978580        -1.644210        -0.262271
 H        -2.779255         1.294799        -0.758543
 H        -2.318310         0.195805        -1.951463
 H        -3.723942        -0.381849        -0.948166
 H        -5.008678        -0.781361         3.249634
 H        -4.025385        -2.189711         3.333807
 H        -3.335212        -0.635429         3.742355
