19
Iteration:  1502
 C         1.842995         0.264999         0.012470
 C         0.419250        -0.156154         0.004623
 C        -0.801477        -0.367380        -0.005195
 C        -2.269463        -0.292436        -0.186114
 C        -2.725708         0.920597        -1.080227
 O        -2.855674        -0.094650         1.123830
 C        -3.337478        -1.319410         1.572600
 C        -3.834699        -0.922415         2.938259
 O        -3.470072        -2.325028         0.970925
 H         1.943667         1.246378         0.381831
 H         2.329883        -0.406256         0.801188
 H         2.320512         0.234405        -0.994802
 H        -2.571189        -1.333308        -0.476691
 H        -2.495668         1.816079        -0.522630
 H        -2.130857         0.940698        -1.994187
 H        -3.750936         0.734819        -1.245926
 H        -3.102045        -0.518212         3.678127
 H        -4.545497        -0.106650         2.689387
 H        -4.406021        -1.780508         3.409812
