19
Iteration:  1359
 C         1.566692        -0.399357         0.377723
 C         0.172689        -0.158946        -0.026420
 C        -0.994917        -0.041373        -0.273400
 C        -2.416808         0.002768        -0.385047
 C        -2.994323         1.136038        -1.214895
 O        -3.001430        -0.070773         0.986733
 C        -3.095653        -1.223642         1.611753
 C        -3.946560        -1.123928         2.830788
 O        -2.428875        -2.265137         1.363641
 H         2.174010         0.099339        -0.285902
 H         1.754007         0.112240         1.453038
 H         1.947323        -1.505073         0.373042
 H        -2.727884        -0.895753        -0.968466
 H        -3.180377         2.047086        -0.545425
 H        -2.267826         1.447123        -1.914080
 H        -3.982904         0.891635        -1.697824
 H        -4.603937        -2.029267         2.860784
 H        -3.257083        -1.219520         3.699938
 H        -4.533655        -0.209817         2.696254
