19
Iteration:   117
 C         1.754196         0.427943         0.293086
 C         0.331402         0.219623         0.125081
 C        -0.844210         0.220485        -0.157830
 C        -2.303113        -0.079919        -0.294834
 C        -3.032147         0.917808        -1.233577
 O        -2.905118        -0.280804         0.998859
 C        -3.190037        -1.475498         1.578657
 C        -3.712222        -1.419236         3.011718
 O        -3.158541        -2.551010         1.038918
 H         2.221864        -0.625181         0.402574
 H         2.188346         0.977030        -0.547935
 H         1.826810         1.099390         1.264233
 H        -2.300646        -1.077999        -0.771064
 H        -2.579810         1.989035        -1.151408
 H        -2.910006         0.351416        -2.175176
 H        -4.142157         0.866135        -0.983791
 H        -4.621869        -2.060892         3.002075
 H        -2.837268        -1.904205         3.480597
 H        -3.963309        -0.388805         3.325311
