19
Iteration:  2599
 C         2.006197        -0.139801         0.308837
 C         0.561049        -0.261978        -0.115553
 C        -0.667370        -0.336801        -0.240682
 C        -2.154245        -0.298638        -0.281200
 C        -2.815924         0.811505        -1.036910
 O        -2.653875        -0.123866         1.086553
 C        -3.452070        -1.104931         1.621445
 C        -3.959680        -0.701768         2.934374
 O        -3.814680        -2.105754         0.984078
 H         2.653713        -0.215448        -0.745995
 H         2.246753         0.844709         0.659459
 H         2.358452        -0.881219         0.954590
 H        -2.655188        -1.254690        -0.570933
 H        -2.260056         1.772768        -0.886443
 H        -3.137700         0.423011        -2.000420
 H        -3.697265         1.011723        -0.382795
 H        -3.207711        -0.510380         3.741677
 H        -4.645068         0.178148         2.865994
 H        -4.472821        -1.648910         3.261586
