19
Iteration:   603charge 0 multiplicity 1
 C         1.845203         0.511509         0.118959
 C         0.435265         0.270750         0.121629
 C        -0.744656         0.169788        -0.199781
 C        -2.160291        -0.276278        -0.266863
 C        -2.956964         0.715702        -1.202585
 O        -2.752382        -0.255908         1.145667
 C        -3.326774        -1.500878         1.601762
 C        -3.783713        -1.176645         2.966461
 O        -3.558071        -2.546003         1.038679
 H         2.271327        -0.542187         0.203768
 H         2.159613         0.858928        -0.820786
 H         2.184508         1.167026         0.999955
 H        -2.255027        -1.270381        -0.631210
 H        -2.792563         1.741679        -0.736229
 H        -2.612510         0.670994        -2.203920
 H        -4.041525         0.566765        -1.254155
 H        -4.674394        -0.488352         2.941521
 H        -4.139248        -2.028101         3.621070
 H        -2.925642        -0.766176         3.576177
