19
Iteration:  2838charge 0 multiplicity 1
 C         2.168186         0.193655        -0.383265
 C         0.718216        -0.136403        -0.007491
 C        -0.489316        -0.314433         0.140101
 C        -1.866323        -0.659598        -0.048898
 C        -2.558516         0.222988        -1.019230
 O        -2.409528        -0.678854         1.415314
 C        -3.766809        -0.960414         1.594276
 C        -4.135910        -0.796806         3.035036
 O        -4.582465        -1.161768         0.737179
 H         2.280344         1.361341        -0.203018
 H         3.012322        -0.206450         0.260367
 H         2.358590        -0.010194        -1.531517
 H        -1.886885        -1.717956        -0.404650
 H        -3.472118        -0.211957        -1.600363
 H        -2.712904         1.231437        -0.689491
 H        -1.808719         0.397207        -1.783357
 H        -4.772421        -1.665808         3.380075
 H        -3.275652        -0.732437         3.729929
 H        -4.803293         0.087871         3.006803
