19
Iteration:  4025
 C         1.599932        -0.821385         0.294312
 C         0.128056        -0.706442         0.108743
 C        -1.025498        -0.409891        -0.224063
 C        -2.448277        -0.046035        -0.363505
 C        -2.456885         1.428470        -0.986312
 O        -3.071797         0.159640         0.879412
 C        -3.296732        -1.061739         1.524096
 C        -3.300446        -0.729224         2.983512
 O        -3.335941        -2.184531         1.081525
 H         2.193573        -1.599880        -0.047241
 H         2.090573         0.104176         0.005891
 H         1.724663        -0.840176         1.401300
 H        -2.956607        -0.633214        -1.059401
 H        -3.382274         1.972133        -0.968968
 H        -1.656595         1.895253        -0.329445
 H        -2.185688         1.403048        -2.078173
 H        -2.229410        -0.538744         3.210592
 H        -3.968238         0.074114         3.254723
 H        -3.625255        -1.627091         3.503301
