19
Iteration:  1316charge 0 multiplicity 1
 C         1.480804        -0.337394         0.482478
 C         0.166765        -0.316995        -0.129106
 C        -1.025429        -0.177608        -0.266080
 C        -2.457476        -0.063403        -0.459293
 C        -2.909380         1.226303        -1.147244
 O        -3.170933        -0.102950         0.896503
 C        -3.061725        -1.203654         1.655682
 C        -3.920767        -1.204582         2.898239
 O        -2.236536        -2.034513         1.307006
 H         2.302665        -0.311348        -0.110676
 H         1.665739         0.529429         1.239970
 H         1.622686        -1.413124         1.014024
 H        -2.903043        -0.986129        -0.970866
 H        -2.574127         2.257438        -0.751769
 H        -2.516729         1.261357        -2.165082
 H        -4.053483         1.180263        -1.258707
 H        -4.977187        -1.412888         2.644058
 H        -3.546018        -2.040006         3.548767
 H        -3.842924        -0.272847         3.452371
