19
Iteration:  4493charge 0 multiplicity 1
 C         2.106023        -0.761463        -0.357088
 C         0.692683        -0.297906        -0.136896
 C        -0.501888        -0.196807        -0.116376
 C        -2.024251        -0.383645        -0.065454
 C        -2.951904         0.465805        -0.867753
 O        -2.390866        -0.315363         1.337010
 C        -3.668814        -0.756653         1.591493
 C        -3.813950        -0.708432         3.148477
 O        -4.406062        -1.224771         0.792046
 H         2.741484        -0.571979         0.547057
 H         2.258892        -1.842280        -0.592703
 H         2.660493        -0.296329        -1.168118
 H        -2.044905        -1.382125        -0.342108
 H        -4.019698         0.066047        -0.794923
 H        -2.856092         1.498424        -0.315709
 H        -2.650129         0.543523        -1.907036
 H        -2.966321        -1.263802         3.619543
 H        -3.752249         0.374596         3.406402
 H        -4.788458        -1.121487         3.444333
