19
Iteration:  3695charge 0 multiplicity 1
 C         2.046854         0.250148        -0.349972
 C         0.754755        -0.311237        -0.028837
 C        -0.469237        -0.527330        -0.025288
 C        -2.018629        -0.750142         0.014621
 C        -2.577430         0.012490        -1.137484
 O        -2.383049        -0.559516         1.415954
 C        -3.678697        -0.759663         1.666011
 C        -4.012686        -0.839573         3.120330
 O        -4.553677        -0.849961         0.747008
 H         2.432390         0.015715        -1.325787
 H         2.001804         1.401815        -0.309633
 H         2.692547        -0.065948         0.500632
 H        -2.302932        -1.877012        -0.127831
 H        -3.624951        -0.466715        -1.408504
 H        -2.613380         1.071552        -0.936779
 H        -1.910754        -0.140202        -1.994587
 H        -5.068970        -0.552963         3.139725
 H        -3.893225        -1.870699         3.335471
 H        -3.377424        -0.174462         3.735372
