19
Iteration:    89
 C         1.744249         0.461437         0.272117
 C         0.330505         0.459819         0.110870
 C        -0.796604         0.153079        -0.159971
 C        -2.188399        -0.276716        -0.328148
 C        -3.120546         0.836869        -1.090400
 O        -2.740518        -0.310216         1.128100
 C        -3.243000        -1.510015         1.550431
 C        -3.765813        -1.303026         3.005965
 O        -3.277382        -2.530553         0.851052
 H         1.991762        -0.517148         0.756310
 H         2.264746         0.567492        -0.690093
 H         2.021041         1.180589         0.920131
 H        -2.202544        -1.324849        -0.668579
 H        -2.771956         1.745814        -0.729894
 H        -2.914157         0.779430        -2.195799
 H        -4.139205         0.586119        -0.982499
 H        -4.689198        -1.810431         3.212760
 H        -2.970985        -1.727619         3.627591
 H        -3.915794        -0.233360         3.066576
