19
Iteration:  4923
 C         1.851771        -0.834935        -0.288202
 C         0.423319        -0.672938        -0.398284
 C        -0.737444        -0.384927        -0.351685
 C        -2.143243        -0.074479        -0.194359
 C        -2.362435         1.312742        -0.872824
 O        -2.673204         0.026629         1.132554
 C        -3.422548        -0.995048         1.798862
 C        -4.080418        -0.563835         3.015023
 O        -3.811534        -2.126527         1.372722
 H         2.182745        -0.783231        -1.342089
 H         2.252757         0.011922         0.299163
 H         2.036754        -1.794087         0.223306
 H        -2.890966        -0.838356        -0.583498
 H        -3.289613         1.214046        -1.382026
 H        -2.575152         1.990027        -0.084481
 H        -1.568460         1.584763        -1.527283
 H        -4.911719        -1.266355         3.290268
 H        -3.434261        -0.729746         3.871766
 H        -4.493713         0.428500         2.973262
