19
Iteration:  1807charge 0 multiplicity 1
 C         1.937529         0.519328        -0.055797
 C         0.504054         0.241906        -0.179300
 C        -0.505430        -0.429571        -0.150678
 C        -1.963555        -0.709403        -0.111404
 C        -2.719445         0.265146        -0.953044
 O        -2.276267        -0.600955         1.353085
 C        -3.583095        -1.086266         1.642961
 C        -4.159018        -0.872897         3.062028
 O        -4.231455        -1.577602         0.769519
 H         2.650917        -0.261266        -0.566477
 H         2.096817         1.464985        -0.716448
 H         2.339345         0.673300         0.848829
 H        -2.197913        -1.621034        -0.625589
 H        -2.479898         1.223951        -0.583774
 H        -2.107788         0.265697        -1.998460
 H        -3.772293        -0.055604        -1.027052
 H        -3.414416        -1.381342         3.717746
 H        -4.027359         0.205043         3.261128
 H        -5.200168        -1.135707         2.993794
