19
Iteration:  4496
 C         2.119262        -0.741913        -0.362505
 C         0.694318        -0.312644        -0.111546
 C        -0.524110        -0.197902        -0.110799
 C        -2.029267        -0.383338        -0.035468
 C        -2.944568         0.474729        -0.881059
 O        -2.387170        -0.327339         1.316938
 C        -3.627297        -0.760113         1.607133
 C        -3.797302        -0.707729         3.142935
 O        -4.450710        -1.216543         0.782761
 H         2.659982        -0.563124         0.498281
 H         2.281654        -1.763307        -0.572370
 H         2.678076        -0.361474        -1.196732
 H        -2.036087        -1.409282        -0.395468
 H        -4.031598         0.164642        -0.799163
 H        -2.918757         1.472513        -0.428367
 H        -2.567347         0.450798        -1.943246
 H        -2.994522        -1.235397         3.681887
 H        -3.723543         0.348421         3.413470
 H        -4.747939        -1.161136         3.481381
