19
Iteration:   877charge 0 multiplicity 1
 C         2.065050         0.993651        -0.230408
 C         0.581709         0.463367        -0.046715
 C        -0.549241        -0.050951        -0.054523
 C        -1.883018        -0.712966        -0.121851
 C        -2.709443         0.285744        -0.888664
 O        -2.381342        -0.790998         1.375332
 C        -3.623122        -1.276875         1.625234
 C        -4.153983        -1.186568         3.053783
 O        -4.249582        -1.824647         0.693371
 H         1.974655         2.056176        -0.301025
 H         2.726870         0.628223         0.496690
 H         2.359409         0.535465        -1.341074
 H        -1.840368        -1.833362        -0.375669
 H        -2.165561         1.253178        -0.847050
 H        -2.755350         0.061991        -2.079227
 H        -3.797396         0.221759        -0.720464
 H        -4.072529        -0.224686         3.647329
 H        -5.311416        -1.309957         3.048330
 H        -3.860178        -2.069382         3.653270
