19
Iteration:   584charge 0 multiplicity 1
 C         1.830332         0.499877         0.105392
 C         0.346949         0.327795         0.070051
 C        -0.835912        -0.018941        -0.000694
 C        -2.218665        -0.224185        -0.275120
 C        -2.857280         0.823492        -1.190726
 O        -2.794558        -0.392365         1.020601
 C        -3.379339        -1.454281         1.582822
 C        -3.766123        -1.112931         3.062082
 O        -3.382446        -2.511829         1.005515
 H         2.327519        -0.552781         0.464229
 H         2.103200         0.727487        -0.922366
 H         2.007083         1.264905         0.706153
 H        -2.376318        -1.241155        -0.756822
 H        -2.679023         1.872796        -0.895564
 H        -2.488235         0.413726        -2.118579
 H        -3.980472         0.746331        -1.193672
 H        -4.457479        -0.184846         3.062423
 H        -4.361013        -2.007589         3.592854
 H        -2.797518        -1.016993         3.716460
