19
Iteration:  1568
 C         2.025215         0.370732         0.067634
 C         0.505293         0.215463        -0.151729
 C        -0.588144        -0.328805        -0.281678
 C        -2.086858        -0.415471        -0.220325
 C        -2.795223         0.786311        -0.936749
 O        -2.562868        -0.386190         1.137360
 C        -3.457669        -1.302052         1.648796
 C        -3.985895        -0.869439         2.985626
 O        -3.981073        -2.271578         1.023771
 H         2.210933         0.863779         0.979240
 H         2.380074        -0.722872         0.187895
 H         2.696261         0.890724        -0.697627
 H        -2.518884        -1.316804        -0.752791
 H        -2.501276         1.707831        -0.506864
 H        -2.574538         0.909971        -2.065492
 H        -3.836136         0.686834        -0.800164
 H        -3.825552         0.154921         3.410161
 H        -5.103276        -0.875771         2.856940
 H        -3.724737        -1.611528         3.787110
