19
Iteration:  2433
 C         1.821605        -0.543897         0.333418
 C         0.298006        -0.278306         0.134086
 C        -0.857511        -0.174179        -0.257521
 C        -2.332316        -0.123024        -0.409854
 C        -2.729852         1.189770        -1.098941
 O        -3.048723        -0.040968         0.850403
 C        -3.247491        -1.129783         1.600012
 C        -3.839982        -0.791561         2.968736
 O        -3.114139        -2.296087         1.218442
 H         1.985197        -1.787349         0.391154
 H         2.345376        -0.223692        -0.560289
 H         2.247528        -0.087537         1.201766
 H        -2.603370        -1.016623        -1.142858
 H        -2.571520         1.974597        -0.440414
 H        -2.380401         1.408221        -2.180559
 H        -3.850107         1.283486        -1.100228
 H        -4.807175        -1.320859         2.772527
 H        -3.349499        -1.271969         3.849118
 H        -3.853338         0.304819         3.186051
