19
Iteration:  2476
 C         1.788600        -0.414429         0.157748
 C         0.363846        -0.299900         0.117600
 C        -0.834388        -0.139149         0.108908
 C        -2.274994        -0.116407        -0.331073
 C        -2.620406         1.214636        -1.233823
 O        -3.053870        -0.139919         0.868871
 C        -3.377071        -1.254290         1.604437
 C        -3.727261        -0.701326         2.942451
 O        -3.356566        -2.364362         1.161561
 H         1.955827        -1.482976        -0.231740
 H         2.153617         0.333196        -0.506941
 H         2.246924        -0.298204         1.052384
 H        -2.514407        -1.157137        -0.658178
 H        -2.906844         1.877424        -0.507472
 H        -1.647934         1.388727        -1.759242
 H        -3.489919         1.051426        -1.880453
 H        -4.237408        -1.410830         3.600424
 H        -2.828951        -0.378599         3.505417
 H        -4.091527         0.324872         2.824177
