19
Iteration:  3485
 C         1.869889        -0.274730         0.177703
 C         0.438051        -0.366037        -0.002081
 C        -0.703775        -0.485786        -0.305594
 C        -2.100433        -0.378704        -0.354742
 C        -2.486338         0.857093        -1.228727
 O        -2.725980        -0.143005         1.005199
 C        -3.594198        -1.020040         1.681798
 C        -3.837091        -0.378028         3.039673
 O        -3.933294        -2.155759         1.322995
 H         2.444905        -1.002028        -0.586530
 H         2.179400         0.822105        -0.259413
 H         2.344514        -0.309862         1.206322
 H        -2.612289        -1.237240        -0.899386
 H        -3.490231         0.992387        -1.437408
 H        -1.881343         1.777384        -0.846676
 H        -1.982601         0.678822        -2.218177
 H        -4.673063         0.307493         3.006118
 H        -4.024623        -1.211321         3.759870
 H        -2.906279         0.164207         3.255689
