19
Iteration:  1497charge 0 multiplicity 1
 C         1.828730         0.194008         0.006508
 C         0.384504        -0.082050         0.025714
 C        -0.799535        -0.400776        -0.003758
 C        -2.240992        -0.292049        -0.225516
 C        -2.696404         0.887441        -1.064813
 O        -2.878866        -0.047549         1.100979
 C        -3.322372        -1.256189         1.592588
 C        -3.854916        -0.980361         2.960095
 O        -3.424861        -2.335772         0.955462
 H         1.892009         1.358691         0.356063
 H         2.330701        -0.415652         0.760888
 H         2.334796         0.144046        -0.959666
 H        -2.695104        -1.205981        -0.589318
 H        -2.622986         1.861805        -0.460740
 H        -2.151423         0.881048        -2.026694
 H        -3.839943         0.710618        -1.241757
 H        -3.223093        -0.591722         3.762619
 H        -4.445063        -0.038774         2.888133
 H        -4.404205        -1.765263         3.434812
