19
Iteration:    51
 C         1.802015         0.638421         0.228301
 C         0.457501         0.372635        -0.061895
 C        -0.728039         0.106441        -0.183538
 C        -2.109119        -0.306434        -0.198657
 C        -3.130065         0.626721        -0.966783
 O        -2.614675        -0.332152         1.186612
 C        -3.313604        -1.463834         1.551287
 C        -3.876511        -1.347930         2.915342
 O        -3.490209        -2.389935         0.764636
 H         2.049113        -0.018467         1.178420
 H         2.605851         0.390469        -0.484619
 H         1.895040         1.831079         0.495050
 H        -2.171271        -1.361085        -0.563264
 H        -3.413576         1.310179        -0.062057
 H        -2.737747         1.149853        -1.839452
 H        -4.196632         0.285009        -1.103678
 H        -4.755674        -1.985273         3.207780
 H        -2.972087        -1.597430         3.525378
 H        -3.938135        -0.313455         3.321104
