19
Iteration:   583charge 0 multiplicity 1
 C         1.824879         0.504630         0.100664
 C         0.344117         0.325283         0.064031
 C        -0.831031        -0.028295         0.013905
 C        -2.221822        -0.233784        -0.275004
 C        -2.856797         0.824972        -1.191355
 O        -2.798743        -0.384219         1.014238
 C        -3.378821        -1.460585         1.576161
 C        -3.763839        -1.113549         3.060943
 O        -3.373921        -2.507041         1.007988
 H         2.294361        -0.557778         0.467417
 H         2.102841         0.684056        -0.900097
 H         2.006821         1.292561         0.726255
 H        -2.381147        -1.221203        -0.754304
 H        -2.650491         1.884054        -0.870978
 H        -2.502332         0.437528        -2.105394
 H        -3.972245         0.770195        -1.207948
 H        -4.461207        -0.175559         3.070052
 H        -4.381342        -1.986683         3.615082
 H        -2.787361        -1.046624         3.729935
