19
Iteration:  2538charge 0 multiplicity 1
 C         1.830975        -0.231547         0.147870
 C         0.426188        -0.271476         0.067719
 C        -0.790687        -0.342390        -0.012269
 C        -2.244362        -0.220285        -0.237545
 C        -2.525802         0.882416        -1.317896
 O        -2.928466         0.101551         1.019022
 C        -3.420266        -1.113233         1.650028
 C        -3.829596        -0.926916         3.086011
 O        -3.564590        -2.136645         1.019010
 H         2.110343        -0.805183        -0.684790
 H         2.213330         0.799621        -0.196285
 H         2.388883        -0.640976         1.116354
 H        -2.610098        -1.157865        -0.647558
 H        -2.040431         1.905317        -1.025673
 H        -2.216518         0.711399        -2.359067
 H        -3.596238         1.048085        -1.340429
 H        -3.386957        -1.784286         3.642616
 H        -3.557378         0.012145         3.568570
 H        -4.880812        -1.180129         3.033410
