19
Iteration:  3205
 C         1.476050        -0.834761         0.330418
 C         0.069749        -0.665942         0.149773
 C        -1.045068        -0.520724        -0.241215
 C        -2.383639        -0.023396        -0.491160
 C        -2.357510         1.371206        -1.101612
 O        -3.405683        -0.122850         0.527544
 C        -3.156523        -0.959400         1.675591
 C        -4.055738        -0.803064         2.832514
 O        -2.321250        -1.769490         1.643434
 H         1.585370        -1.578352         1.146801
 H         2.083780        -1.117954        -0.514441
 H         1.883378         0.123012         0.812992
 H        -2.786259        -0.753867        -1.234578
 H        -3.422916         1.606028        -1.166348
 H        -1.698873         1.994808        -0.603126
 H        -2.034361         1.407583        -2.090409
 H        -3.843090         0.227253         3.144505
 H        -5.076295        -1.170801         2.654774
 H        -3.713498        -1.561623         3.582717
