19
Iteration:  4616charge 0 multiplicity 1
 C         1.703295        -0.037645        -0.126792
 C         0.459562        -0.765334        -0.147472
 C        -0.744173        -0.854037        -0.319209
 C        -2.110279        -0.603696        -0.263658
 C        -2.382678         0.709421        -0.967050
 O        -2.283956        -0.588022         1.275801
 C        -3.531802        -0.762422         1.709797
 C        -3.629911        -0.717114         3.231780
 O        -4.515311        -0.910750         0.901070
 H         1.682898         0.984696         0.205624
 H         2.590174        -0.511452         0.325553
 H         2.063908        -0.138846        -1.169637
 H        -2.755088        -1.378087        -0.561238
 H        -3.442281         1.086909        -0.863690
 H        -1.746393         1.427207        -0.440064
 H        -1.996837         0.583064        -2.073388
 H        -2.588869        -0.822672         3.591574
 H        -3.996811         0.308933         3.466914
 H        -4.310105        -1.523866         3.597584
