19
Iteration:  1837charge 0 multiplicity 1
 C         2.036632         0.454310         0.010217
 C         0.597307         0.137833        -0.103991
 C        -0.548349        -0.207950        -0.223117
 C        -1.949224        -0.656937        -0.157304
 C        -2.874821         0.280899        -0.866070
 O        -2.297270        -0.634322         1.321480
 C        -3.573025        -1.105847         1.591203
 C        -4.034320        -0.716964         2.949061
 O        -4.300898        -1.758979         0.809580
 H         2.598980        -0.186774        -0.787123
 H         2.243569         1.487556        -0.282507
 H         2.439273         0.313182         1.058893
 H        -2.037020        -1.705735        -0.571550
 H        -2.683669         1.323059        -0.511725
 H        -2.685889         0.345607        -1.966979
 H        -3.899362         0.018114        -0.799603
 H        -3.155688        -0.492715         3.571077
 H        -4.604421         0.174634         2.779460
 H        -4.598754        -1.553876         3.332151
