19
Iteration:   300
 C         1.439276        -0.126046         0.347011
 C         0.070600        -0.034841         0.209177
 C        -1.079428         0.078615        -0.195103
 C        -2.533777        -0.063140        -0.469036
 C        -2.995054         1.230860        -1.206953
 O        -3.246200        -0.271072         0.841290
 C        -2.970408        -1.400265         1.612921
 C        -3.823925        -1.372118         2.810644
 O        -2.060098        -2.186003         1.383160
 H         2.002338         0.658698        -0.311685
 H         1.778101         0.248613         1.332405
 H         2.055833        -1.053481         0.162584
 H        -2.667679        -1.033173        -0.954794
 H        -2.662404         2.205970        -0.736922
 H        -2.770182         1.198934        -2.298408
 H        -4.095439         1.195568        -1.324302
 H        -3.824794        -2.343679         3.355351
 H        -3.400053        -0.768633         3.644391
 H        -4.871854        -1.095381         2.559450
