19
Iteration:   948charge 0 multiplicity 1
 C         1.961380         0.706771        -0.203820
 C         0.580490         0.292150         0.059060
 C        -0.590432        -0.006844        -0.041556
 C        -1.918655        -0.540589        -0.128251
 C        -2.852208         0.339144        -0.953098
 O        -2.496617        -0.399040         1.378086
 C        -3.566015        -1.290918         1.542016
 C        -4.042280        -1.183603         2.994377
 O        -4.017344        -2.035668         0.713701
 H         2.281984         1.616281         0.461143
 H         2.721520        -0.143987        -0.135587
 H         2.009398         1.044749        -1.147661
 H        -2.012441        -1.540500        -0.364125
 H        -3.253061         1.119139        -0.310680
 H        -2.431439         0.839824        -1.727015
 H        -3.611938        -0.301529        -1.407738
 H        -4.895129        -0.566315         3.277633
 H        -4.377000        -2.218567         3.306116
 H        -3.175358        -1.026971         3.674409
