19
Iteration:  2696
 C         2.209325        -0.016623        -0.032484
 C         0.672017        -0.162425        -0.055069
 C        -0.558658        -0.296419        -0.116901
 C        -2.007781        -0.497231        -0.152147
 C        -2.859475         0.548891        -0.902976
 O        -2.523635        -0.338317         1.288606
 C        -3.651108        -1.029449         1.584629
 C        -4.091909        -0.617348         2.948594
 O        -4.140646        -1.852626         0.774739
 H         2.628858         0.700789        -0.789017
 H         2.670233         0.391194         0.833759
 H         2.685958        -0.945174        -0.219937
 H        -2.331509        -1.440772        -0.581171
 H        -3.598317         0.809131        -0.161961
 H        -2.282462         1.361200        -1.345960
 H        -3.477314         0.088618        -1.733410
 H        -4.198889         0.497357         3.161922
 H        -4.985876        -1.071486         3.393044
 H        -3.137879        -0.829994         3.462088
