19
Iteration:   137charge 0 multiplicity 1
 C         1.762265         0.403703         0.347059
 C         0.323921         0.151653        -0.005615
 C        -0.908032         0.071385        -0.017814
 C        -2.318681        -0.116398        -0.330201
 C        -2.990947         0.898732        -1.220923
 O        -3.102961        -0.136094         1.023280
 C        -3.210388        -1.456160         1.541762
 C        -3.628320        -1.396445         2.979960
 O        -2.979528        -2.527173         1.008817
 H         2.344256        -0.427700         0.240490
 H         2.130973         1.180231        -0.325139
 H         1.814824         0.849451         1.457621
 H        -2.461141        -1.152719        -0.650550
 H        -2.553962         1.954180        -0.953008
 H        -2.955236         0.706451        -2.394265
 H        -4.119911         0.816644        -0.979049
 H        -4.550091        -2.019439         3.076820
 H        -2.847892        -1.938582         3.528658
 H        -3.930167        -0.382542         3.268539
