19
Iteration:  4155charge 0 multiplicity 1
 C         1.088110        -1.522785         0.473463
 C        -0.093754        -0.784278         0.105784
 C        -0.962881        -0.058659        -0.335379
 C        -2.462898         0.176347        -0.511200
 C        -2.861544         1.557971        -1.198986
 O        -2.913446         0.230728         0.934611
 C        -2.959535        -0.938910         1.598672
 C        -3.647905        -0.881498         2.990358
 O        -2.365738        -2.003965         1.192414
 H         1.152115        -2.636186         0.344314
 H         2.002627        -1.056173        -0.040401
 H         1.240564        -1.194544         1.596293
 H        -2.997996        -0.693634        -1.137496
 H        -3.793896         1.473649        -1.647728
 H        -2.869688         2.459462        -0.504941
 H        -2.085275         1.820974        -1.906111
 H        -4.285595        -0.014812         3.241130
 H        -4.343857        -1.729240         3.110382
 H        -2.813876        -0.956524         3.751661
