19
Iteration:  4483charge 0 multiplicity 1
 C         2.082672        -0.793296        -0.319557
 C         0.724821        -0.299840        -0.242792
 C        -0.506107        -0.181254        -0.141137
 C        -1.920674        -0.438409        -0.127619
 C        -2.944247         0.505538        -0.830998
 O        -2.412535        -0.264012         1.390836
 C        -3.654968        -0.733602         1.694177
 C        -3.895882        -0.682901         3.107492
 O        -4.343110        -1.299756         0.765463
 H         2.685064        -0.669336         0.567083
 H         1.905173        -1.831437        -0.578347
 H         2.434197        -0.143308        -1.073405
 H        -2.235727        -1.382628        -0.318334
 H        -3.942247        -0.074710        -0.786845
 H        -3.049931         1.538677        -0.258105
 H        -2.752915         0.817458        -1.862914
 H        -3.039405        -1.297710         3.492650
 H        -3.773783         0.333358         3.556575
 H        -4.871283        -1.093373         3.403222
