19
Iteration:   735
 C         1.937133         0.860847        -0.002936
 C         0.543185         0.415229        -0.064946
 C        -0.600261        -0.029412        -0.034453
 C        -1.949937        -0.575082        -0.109357
 C        -2.827812         0.334631        -1.010060
 O        -2.470516        -0.506352         1.291506
 C        -3.595840        -1.374617         1.511098
 C        -3.781707        -1.157818         2.994504
 O        -4.246204        -2.077535         0.775250
 H         2.357496         0.853146        -1.082302
 H         1.995690         1.792166         0.459966
 H         2.548448         0.040964         0.650533
 H        -1.888753        -1.575365        -0.508198
 H        -2.514240         1.384132        -0.774954
 H        -2.610554         0.204875        -2.073939
 H        -3.899617         0.037459        -0.833743
 H        -3.715934        -2.145782         3.604259
 H        -2.823025        -0.586219         3.259643
 H        -4.791507        -0.694067         3.142385
