19
Iteration:  3895
 C         2.026604        -0.567230        -0.203009
 C         0.632752        -0.242308        -0.161331
 C        -0.598942        -0.193617        -0.182548
 C        -2.018079        -0.323869        -0.088398
 C        -2.807833         0.748288        -0.809406
 O        -2.467606        -0.213924         1.337819
 C        -3.576532        -1.010194         1.593952
 C        -4.129911        -0.625852         3.009686
 O        -3.996688        -1.776971         0.804445
 H         2.341991        -1.309884        -0.890761
 H         2.744440         0.244426        -0.249473
 H         2.209654        -1.008386         0.811133
 H        -2.506907        -1.155616        -0.619637
 H        -3.734115         0.688009        -0.303791
 H        -2.435284         1.796147        -0.561824
 H        -2.861403         0.573329        -1.908500
 H        -4.661978        -1.510015         3.357286
 H        -3.292935        -0.391733         3.659134
 H        -4.808348         0.177194         2.839859
