19
Iteration:  4260charge 0 multiplicity 1
 C         1.514434        -1.272533        -0.046775
 C         0.140466        -0.684087        -0.059349
 C        -0.947679        -0.228124        -0.163815
 C        -2.316841         0.121052        -0.357792
 C        -2.527170         1.434603        -1.111326
 O        -2.972860         0.221257         1.052139
 C        -3.208337        -1.067848         1.664008
 C        -4.036457        -0.710420         2.966035
 O        -2.748494        -2.103160         1.360238
 H         1.384410        -2.304288         0.370825
 H         1.968697        -1.284737        -1.026965
 H         2.038599        -0.679264         0.666612
 H        -2.692092        -0.705569        -0.889626
 H        -3.666044         1.705336        -1.041989
 H        -1.976084         2.285647        -0.619569
 H        -2.368087         1.386240        -2.260275
 H        -5.123052        -0.852137         2.867037
 H        -3.615506        -1.244644         3.818035
 H        -3.909318         0.361561         3.154773
