19
Iteration:  1268
 C         1.391844        -0.391024         0.378403
 C         0.023788        -0.171274         0.226328
 C        -1.110864        -0.122529        -0.128910
 C        -2.492144        -0.062541        -0.489755
 C        -2.843297         1.220635        -1.120124
 O        -3.226055        -0.235889         0.690611
 C        -2.949363        -1.232141         1.596599
 C        -3.842715        -1.068834         2.909693
 O        -2.159521        -2.123827         1.290151
 H         1.966713        -0.865566        -0.545332
 H         1.926312         0.629636         0.556688
 H         1.633531        -1.016291         1.167251
 H        -2.680247        -0.957541        -1.042814
 H        -2.162256         1.940416        -0.796965
 H        -2.739655         1.212790        -2.226362
 H        -3.813660         1.537893        -0.852582
 H        -4.624746        -0.258602         2.895713
 H        -4.363829        -2.047240         3.188904
 H        -3.173584        -0.829999         3.810953
