19
Iteration:  2204
 C         1.645389        -0.579187         0.284078
 C         0.185664        -0.487160         0.022555
 C        -1.007485        -0.319701        -0.097814
 C        -2.367730        -0.075189        -0.381819
 C        -2.682277         1.342244        -1.128886
 O        -3.268083        -0.030484         0.737186
 C        -3.116698        -1.099473         1.643710
 C        -4.000448        -0.876401         2.919146
 O        -2.515599        -2.150147         1.346308
 H         1.869294         0.101707         1.194907
 H         1.906634        -1.611372         0.507778
 H         2.235542        -0.158459        -0.549818
 H        -2.614590        -0.864901        -1.085011
 H        -2.366557         2.236768        -0.475974
 H        -2.183681         1.348742        -2.157754
 H        -3.764158         1.334457        -1.211030
 H        -3.670514        -0.030511         3.593578
 H        -5.024621        -0.924243         2.504572
 H        -3.809289        -1.745874         3.529344
