19
Iteration:  4302
 C         1.691265        -0.875701        -0.193493
 C         0.226936        -0.873807        -0.165604
 C        -0.921485        -0.611806        -0.156104
 C        -2.296907        -0.070876        -0.328212
 C        -2.355283         1.324243        -0.858488
 O        -3.015800         0.269171         1.003792
 C        -3.342122        -0.922773         1.692966
 C        -4.045841        -0.642483         2.986796
 O        -3.047540        -2.025507         1.309028
 H         2.018496        -1.830076         0.327645
 H         2.103771        -1.058501        -1.212375
 H         2.211105         0.064828         0.166187
 H        -3.131119        -0.684888        -0.664347
 H        -3.416808         1.522872        -1.230295
 H        -1.987738         1.828014        -0.033748
 H        -1.662535         1.698102        -1.664447
 H        -4.937783        -1.270633         3.000008
 H        -3.406047        -0.812830         3.837279
 H        -4.350739         0.385935         3.058066
