19
Iteration:  2752
 C         2.087677         0.130983        -0.295132
 C         0.660854        -0.185454        -0.101610
 C        -0.541441        -0.391884         0.042267
 C        -1.949130        -0.623098         0.074448
 C        -2.520943         0.371930        -1.200638
 O        -2.494552        -0.303588         1.401160
 C        -3.700072        -0.878448         1.643781
 C        -4.206639        -0.923348         3.090656
 O        -4.282105        -1.468822         0.733337
 H         2.317824         1.161384        -0.751014
 H         2.578624         0.144087         0.630899
 H         2.498746        -0.656753        -0.788230
 H        -2.247789        -1.581236        -0.290299
 H        -3.651205         0.395515        -1.301059
 H        -2.379316         1.354559        -0.820818
 H        -1.854713         0.087591        -1.961683
 H        -5.232405        -0.442209         3.137036
 H        -4.165049        -1.964264         3.450830
 H        -3.512981        -0.472735         3.821129
