19
Iteration:  2688charge 0 multiplicity 1
 C         2.131926        -0.031286        -0.013961
 C         0.684740        -0.129813        -0.007408
 C        -0.521022        -0.272919        -0.152144
 C        -2.026306        -0.476126        -0.151967
 C        -2.859259         0.581267        -0.916638
 O        -2.492879        -0.387944         1.215483
 C        -3.604894        -1.055745         1.520235
 C        -4.115952        -0.584569         2.957912
 O        -4.118415        -1.872374         0.842521
 H         2.576651         0.515426        -0.972143
 H         2.451825         0.275562         0.953870
 H         2.496057        -1.020046        -0.126012
 H        -2.307263        -1.533668        -0.331645
 H        -3.617840         1.041827        -0.098256
 H        -2.370591         1.450636        -1.287517
 H        -3.547669         0.188393        -1.632638
 H        -3.992596         0.538101         3.043715
 H        -5.013549        -1.046988         3.405912
 H        -3.267125        -0.955616         3.597101
