19
Iteration:  2497charge 0 multiplicity 1
 C         1.891835        -0.367876         0.114438
 C         0.375166        -0.257268         0.028163
 C        -0.854198        -0.185109         0.055977
 C        -2.242679        -0.115625        -0.283508
 C        -2.501780         1.004252        -1.130554
 O        -3.173757        -0.019579         0.869702
 C        -3.401677        -1.167517         1.532901
 C        -3.707034        -0.800648         3.042234
 O        -3.445130        -2.306900         1.122975
 H         2.247125        -1.323385        -0.295458
 H         2.388311         0.523751        -0.257731
 H         2.206824        -0.396072         1.116240
 H        -2.569188        -1.072106        -0.663785
 H        -2.781171         1.846141        -0.538969
 H        -1.602510         1.199023        -1.772155
 H        -3.368998         0.636466        -1.674163
 H        -3.927960        -1.660255         3.688496
 H        -2.992711        -0.122316         3.552539
 H        -4.526955        -0.073562         2.961249
