19
Iteration:  3491
 C         1.862317        -0.222386         0.179170
 C         0.501912        -0.411274         0.006804
 C        -0.652486        -0.481819        -0.381420
 C        -2.173005        -0.398851        -0.396563
 C        -2.468060         0.881159        -1.232973
 O        -2.697106        -0.153336         1.049399
 C        -3.611607        -1.055468         1.663445
 C        -3.808225        -0.360330         3.087217
 O        -3.978884        -2.127788         1.295474
 H         2.521978        -0.815767        -0.353450
 H         1.960155         0.752132        -0.128209
 H         2.096562        -0.372162         1.221567
 H        -2.464540        -1.435500        -0.627297
 H        -3.590528         0.973106        -1.510701
 H        -1.942146         1.697544        -0.836047
 H        -2.123556         0.579788        -2.237234
 H        -4.683478         0.322685         3.019367
 H        -3.993458        -1.159127         3.783316
 H        -2.888711         0.191827         3.365648
