19
Iteration:   494
 C         1.607963         0.403254         0.122306
 C         0.244969        -0.047663         0.060684
 C        -0.959625        -0.157921        -0.137778
 C        -2.443283        -0.197960        -0.223044
 C        -2.755936         1.012708        -1.167651
 O        -2.991957        -0.188608         1.001180
 C        -3.093927        -1.348676         1.630172
 C        -3.913032        -1.233684         2.910896
 O        -2.799596        -2.470806         1.176385
 H         2.056307         0.580431         1.185371
 H         2.309276        -0.132171        -0.453567
 H         1.639793         1.367465        -0.297311
 H        -2.786258        -1.042356        -0.816331
 H        -2.810171         1.979359        -0.593672
 H        -2.001536         1.045524        -1.958981
 H        -3.748715         0.986566        -1.577808
 H        -3.629510        -0.318212         3.536319
 H        -4.998860        -1.242913         2.582503
 H        -3.693303        -2.192548         3.529961
