19
Iteration:  2935
 C         1.995731         0.201893         0.014423
 C         0.675092        -0.399897         0.026609
 C        -0.521213        -0.593850        -0.158547
 C        -2.075029        -0.562529        -0.206961
 C        -2.607428         0.582334        -1.011125
 O        -2.400675        -0.448373         1.219882
 C        -3.608863        -0.970286         1.541346
 C        -3.968478        -0.679751         3.040700
 O        -4.400756        -1.537663         0.868494
 H         1.862703         0.978594         0.841050
 H         2.916903        -0.396137         0.321157
 H         2.164901         0.609510        -1.056209
 H        -2.565288        -1.469066        -0.644721
 H        -3.760789         0.786262        -0.849553
 H        -2.146594         1.531333        -0.858775
 H        -2.456106         0.323954        -2.041774
 H        -3.403753        -1.346437         3.697726
 H        -3.559109         0.285919         3.277707
 H        -5.016964        -0.807359         3.259547
