19
Iteration:  1805charge 0 multiplicity 1
 C         1.926718         0.544635        -0.072017
 C         0.500594         0.212377        -0.183740
 C        -0.513559        -0.419314        -0.140918
 C        -1.961940        -0.714052        -0.091363
 C        -2.704880         0.261951        -0.972760
 O        -2.281069        -0.590133         1.367809
 C        -3.573630        -1.087576         1.650047
 C        -4.143046        -0.876316         3.053723
 O        -4.246714        -1.576624         0.750757
 H         2.661469        -0.287744        -0.538510
 H         2.112829         1.427053        -0.707604
 H         2.343675         0.680819         0.872321
 H        -2.237548        -1.616530        -0.638873
 H        -2.470417         1.248992        -0.531482
 H        -2.090099         0.224001        -1.953871
 H        -3.707943        -0.041847        -1.022503
 H        -3.460689        -1.440255         3.712196
 H        -4.000486         0.155221         3.308210
 H        -5.174126        -1.081104         3.008442
