19
Iteration:  1881
 C         2.021999         0.329088         0.055574
 C         0.627088        -0.029522        -0.052815
 C        -0.554707        -0.136024        -0.057950
 C        -1.962291        -0.503761        -0.223695
 C        -2.991907         0.467732        -1.007429
 O        -2.409281        -0.575086         1.190374
 C        -3.576171        -1.121078         1.534089
 C        -3.942648        -0.622859         2.964135
 O        -4.176961        -2.012259         0.928719
 H         2.725479         0.230463        -0.888476
 H         2.092176         1.412621         0.286859
 H         2.528210        -0.187899         0.918434
 H        -2.111434        -1.466145        -0.787072
 H        -2.973005         1.386369        -0.484302
 H        -2.611955         0.653495        -2.079682
 H        -3.886624        -0.113693        -0.976867
 H        -3.399585         0.342233         3.089853
 H        -4.991194        -0.469713         3.142291
 H        -3.553072        -1.346690         3.649078
