19
Iteration:  3303
 C         1.667435        -0.949665         0.118894
 C         0.239296        -0.645425         0.009783
 C        -0.868722        -0.211975        -0.343749
 C        -2.261138        -0.014896        -0.405348
 C        -2.657839         1.294801        -1.123484
 O        -3.087195        -0.037000         0.775852
 C        -3.209762        -1.011861         1.661056
 C        -4.401123        -0.766536         2.633641
 O        -2.487217        -1.932246         1.940469
 H         1.846019        -1.961428         0.451200
 H         2.244696        -0.721238        -0.764093
 H         2.029740        -0.483775         1.122219
 H        -2.819395        -0.700412        -1.040286
 H        -3.739142         1.205186        -1.514382
 H        -2.403266         2.262273        -0.564916
 H        -2.019203         1.305441        -2.033817
 H        -4.875424         0.177856         2.357870
 H        -5.167562        -1.573950         2.556548
 H        -4.073434        -0.668461         3.697680
