19
Iteration:  4088
 C         1.198431        -1.146904         0.530016
 C         0.035568        -0.638819        -0.016872
 C        -1.107153        -0.359979        -0.347547
 C        -2.458493         0.098200        -0.497595
 C        -2.489173         1.513638        -0.924394
 O        -3.180223         0.135254         0.842856
 C        -3.106105        -1.077366         1.531159
 C        -3.297634        -0.690069         2.959139
 O        -2.788528        -2.140982         1.132574
 H         1.466291        -2.250296         0.336212
 H         2.034565        -0.394444         0.278064
 H         1.079556        -0.947449         1.657831
 H        -2.964361        -0.738636        -1.157527
 H        -3.481897         1.889417        -0.825332
 H        -1.753922         2.102406        -0.391959
 H        -2.200730         1.621090        -1.997506
 H        -2.985040         0.368160         3.202905
 H        -4.363968        -0.818134         3.282056
 H        -2.733074        -1.462251         3.503672
