19
Iteration:   437
 C         1.725449         0.089273         0.256495
 C         0.294736         0.104472        -0.087498
 C        -0.931675         0.058277        -0.187769
 C        -2.377662        -0.131521        -0.365158
 C        -3.089104         1.086964        -1.086018
 O        -3.154145        -0.243039         0.904230
 C        -3.068722        -1.375352         1.634313
 C        -3.983490        -1.260899         2.801486
 O        -2.477315        -2.436800         1.392955
 H         1.778053         0.610164         1.155436
 H         1.985470        -0.935958         0.505769
 H         2.356068         0.572526        -0.541040
 H        -2.540442        -1.038984        -0.832907
 H        -2.596904         1.867624        -0.594485
 H        -3.073273         1.220539        -2.209672
 H        -4.116128         0.987558        -0.753235
 H        -3.467886        -0.775566         3.630822
 H        -4.802787        -0.591796         2.582722
 H        -4.325066        -2.242785         3.031853
