19
Iteration:  4714charge 0 multiplicity 1
 C         2.142662        -0.528501        -0.300214
 C         0.672964        -0.398080        -0.236204
 C        -0.533465        -0.305607        -0.177152
 C        -1.995597        -0.520402        -0.178952
 C        -2.826157         0.628263        -0.899878
 O        -2.305807        -0.660621         1.179107
 C        -3.621598        -0.815729         1.729473
 C        -3.867061        -0.572418         3.258825
 O        -4.602783        -1.102324         0.968564
 H         2.848725         0.328062        -0.505071
 H         2.624929        -1.092700         0.557554
 H         2.328172        -1.162328        -1.180811
 H        -2.335182        -1.459364        -0.594627
 H        -3.853127         0.478742        -1.154916
 H        -2.752924         1.518020        -0.325603
 H        -2.303351         0.791888        -1.814454
 H        -2.973117        -0.647804         3.852999
 H        -4.118412         0.506958         3.287442
 H        -4.705184        -1.229024         3.484760
