19
Iteration:  3398
 C         1.811853        -0.741496        -0.112750
 C         0.399220        -0.493743         0.055057
 C        -0.759104        -0.224893         0.087045
 C        -2.160136        -0.111493        -0.220325
 C        -2.562053         0.868473        -1.387452
 O        -2.999957         0.210077         1.000698
 C        -3.322750        -0.948720         1.736392
 C        -4.320813        -0.679591         2.901147
 O        -3.078123        -2.063017         1.377101
 H         2.164704        -1.767992        -0.337378
 H         2.180596         0.012221        -0.869391
 H         2.123501        -0.779442         0.907939
 H        -2.356988        -1.170510        -0.592335
 H        -3.526389         0.623738        -1.604931
 H        -2.399710         1.995709        -1.221693
 H        -2.004375         0.424797        -2.256180
 H        -5.143395        -0.072746         2.560936
 H        -4.781651        -1.638841         3.067677
 H        -4.126694        -0.322886         3.929654
