19
Iteration:   135charge 0 multiplicity 1
 C         1.752334         0.406991         0.347524
 C         0.321471         0.153730        -0.001057
 C        -0.899209         0.082698        -0.028978
 C        -2.295544        -0.114589        -0.306667
 C        -3.005323         0.905510        -1.220824
 O        -3.091330        -0.136343         1.013884
 C        -3.208794        -1.452996         1.540562
 C        -3.627618        -1.402083         2.971387
 O        -2.996719        -2.540529         1.019488
 H         2.356278        -0.421541         0.276517
 H         2.138528         1.162633        -0.350295
 H         1.838978         0.832415         1.400615
 H        -2.460773        -1.141856        -0.654403
 H        -2.571209         1.907672        -1.039996
 H        -2.964661         0.727191        -2.393006
 H        -4.105476         0.854883        -1.034472
 H        -4.527773        -2.030173         3.087171
 H        -2.896238        -1.949514         3.568899
 H        -3.937113        -0.411339         3.296886
