19
Iteration:  3385charge 0 multiplicity 1
 C         1.779401        -0.852520        -0.043369
 C         0.386882        -0.422043         0.004040
 C        -0.789704        -0.208998         0.055275
 C        -2.213157        -0.075951        -0.217697
 C        -2.604129         0.827340        -1.332758
 O        -2.947218         0.165236         0.994960
 C        -3.340467        -0.877699         1.714071
 C        -4.431616        -0.730030         2.826824
 O        -2.912120        -2.013716         1.434777
 H         1.755840        -1.897162        -0.512548
 H         2.376812        -0.202851        -0.785354
 H         2.429808        -0.602965         0.788425
 H        -2.564379        -1.143041        -0.432058
 H        -3.618042         0.901682        -1.538633
 H        -2.269179         1.837413        -1.084254
 H        -2.000131         0.592696        -2.239401
 H        -5.206011        -0.003858         2.534471
 H        -4.791785        -1.738644         2.909700
 H        -3.892525        -0.409481         3.747857
