19
Iteration:  3741charge 0 multiplicity 1
 C         2.006610         0.413311        -0.493077
 C         0.632652        -0.325755        -0.254562
 C        -0.419668        -0.854340         0.113586
 C        -1.832471        -0.869188         0.206377
 C        -2.358222         0.250382        -0.905600
 O        -2.455985        -0.568639         1.469880
 C        -3.797618        -0.809115         1.562739
 C        -4.149214        -0.720728         3.046702
 O        -4.538273        -0.966719         0.699288
 H         2.200387         0.113793        -1.557804
 H         1.939530         1.558325        -0.597903
 H         2.800797         0.084847         0.268607
 H        -2.247093        -1.815456        -0.215500
 H        -3.418414         0.315696        -0.805187
 H        -1.760533         1.096375        -0.750045
 H        -2.093678        -0.045305        -1.943963
 H        -5.204777        -0.566427         3.023574
 H        -3.785894        -1.654553         3.457461
 H        -3.624565         0.134270         3.430318
