19
Iteration:  3580charge 0 multiplicity 1
 C         1.872753        -0.089123         0.324263
 C         0.545484        -0.324269        -0.030888
 C        -0.630589        -0.361815        -0.326201
 C        -2.021312        -0.609579        -0.325991
 C        -2.876880         0.273227        -1.225542
 O        -2.292005        -0.345447         1.175814
 C        -3.467158        -0.831279         1.652015
 C        -3.693796        -0.632125         3.077468
 O        -4.382442        -1.382664         0.962811
 H         2.510601        -0.480432        -0.469717
 H         2.047750         0.944768         0.198124
 H         2.302233        -0.376878         1.266063
 H        -2.502059        -1.590085        -0.585991
 H        -3.952189         0.030353        -1.053257
 H        -2.631876         1.389215        -1.176165
 H        -2.703051        -0.027090        -2.327694
 H        -4.490378         0.075669         3.320869
 H        -3.879176        -1.555010         3.683990
 H        -2.759415        -0.186385         3.499667
