19
Iteration:   963charge 0 multiplicity 1
 C         1.925125         0.696937        -0.160380
 C         0.591618         0.242838         0.052465
 C        -0.562174        -0.111360        -0.079018
 C        -2.024073        -0.401916        -0.034151
 C        -2.899729         0.414939        -1.075665
 O        -2.487715        -0.388503         1.297727
 C        -3.479811        -1.254189         1.598079
 C        -4.055441        -1.289613         2.994288
 O        -3.943795        -2.044330         0.836519
 H         2.330573         1.309538         0.554661
 H         2.662052        -0.190233        -0.095936
 H         2.077279         1.265663        -1.181180
 H        -2.045601        -1.505703        -0.425633
 H        -3.483737         1.193505        -0.539650
 H        -2.129435         0.986735        -1.735759
 H        -3.644269        -0.236131        -1.539317
 H        -5.025457        -0.788067         2.765559
 H        -4.401021        -2.296498         3.164934
 H        -3.477892        -0.726310         3.664435
