19
Iteration:    94charge 0 multiplicity 1
 C         1.752442         0.440490         0.281479
 C         0.343245         0.416452         0.129959
 C        -0.829742         0.196828        -0.160936
 C        -2.192567        -0.288681        -0.386670
 C        -3.112356         0.873826        -1.163416
 O        -2.760874        -0.275302         1.157646
 C        -3.257051        -1.520416         1.544387
 C        -3.751938        -1.331335         3.042771
 O        -3.251866        -2.561923         0.872754
 H         2.036444        -0.577637         0.602161
 H         2.221452         0.626738        -0.696646
 H         2.066453         1.346928         1.041154
 H        -2.146379        -1.328054        -0.747346
 H        -2.703442         1.823844        -0.637768
 H        -2.934353         0.706018        -2.276080
 H        -4.221070         0.726988        -0.868787
 H        -4.755931        -1.810449         3.149078
 H        -2.953090        -1.675237         3.712641
 H        -3.918695        -0.240831         3.097929
