19
Iteration:   172
 C         1.555222         0.328810         0.324774
 C         0.152398         0.162465         0.164859
 C        -0.978790        -0.176719        -0.108268
 C        -2.415254        -0.174185        -0.303077
 C        -2.879999         0.943612        -1.110478
 O        -3.149220        -0.129920         0.935143
 C        -3.109773        -1.403033         1.523290
 C        -3.619113        -1.307669         2.962947
 O        -2.694740        -2.416747         0.963508
 H         2.130855        -0.418385        -0.258002
 H         1.813864         1.306434        -0.104032
 H         1.953472         0.314382         1.394180
 H        -2.635105        -1.158620        -0.766034
 H        -2.931016         1.867328        -0.391415
 H        -2.217176         1.093312        -1.986877
 H        -4.000835         0.737134        -1.304483
 H        -4.473651        -2.005358         2.979247
 H        -2.833428        -1.561544         3.705195
 H        -3.847362        -0.256651         3.216137
