19
Iteration:  1044
 C         1.936188         0.379752         0.046399
 C         0.482463         0.233678         0.091545
 C        -0.703704        -0.065533        -0.027623
 C        -2.138689        -0.268207        -0.291592
 C        -2.886766         0.811824        -1.130005
 O        -2.780977        -0.307384         1.048993
 C        -3.403093        -1.409538         1.583134
 C        -3.900545        -1.104643         3.039659
 O        -3.593258        -2.425527         1.005525
 H         2.474073         0.210161         1.061917
 H         2.398010        -0.135074        -0.706041
 H         2.207577         1.453833        -0.152772
 H        -2.364072        -1.179446        -0.855855
 H        -2.484475         1.840476        -0.996070
 H        -2.981073         0.538709        -2.141554
 H        -3.979872         0.727403        -0.833553
 H        -4.681479        -1.796608         3.343360
 H        -3.057866        -1.157246         3.738272
 H        -4.270742        -0.059350         3.250516
