19
Iteration:  4988
 C         1.699429        -1.088818        -0.133388
 C         0.249310        -0.765418        -0.090344
 C        -0.895958        -0.333309        -0.189807
 C        -2.287572        -0.016970        -0.242225
 C        -2.665099         1.300971        -0.928356
 O        -2.763740         0.216249         1.090057
 C        -3.181108        -0.979142         1.688099
 C        -3.945160        -0.652236         3.015598
 O        -3.275904        -2.015357         1.120949
 H         1.968565        -1.424450        -1.145183
 H         2.409410        -0.278535         0.022705
 H         1.995700        -1.779066         0.608054
 H        -2.801627        -0.914131        -0.717689
 H        -3.658967         1.547987        -0.571277
 H        -2.105964         2.131597        -0.493730
 H        -2.582856         1.316977        -2.023076
 H        -4.990977        -0.427417         2.720701
 H        -3.827415        -1.527075         3.606952
 H        -3.547303         0.228082         3.503945
