19
Iteration:    24charge 0 multiplicity 1
 C         1.874050         0.826676         0.153728
 C         0.544622         0.250660        -0.047448
 C        -0.674083         0.152217        -0.185540
 C        -2.082349        -0.266402        -0.181741
 C        -3.085527         0.609739        -0.979287
 O        -2.484185        -0.415351         1.303273
 C        -3.364597        -1.459292         1.523678
 C        -3.910886        -1.456761         2.968855
 O        -3.763486        -2.333404         0.763160
 H         2.195458         0.726613         1.151209
 H         2.644734         0.331963        -0.475011
 H         1.846101         1.967217        -0.168476
 H        -2.211974        -1.280522        -0.568420
 H        -3.505101         1.457263        -0.472509
 H        -2.499852         0.868198        -1.958080
 H        -3.955245        -0.005920        -1.263540
 H        -4.738310        -2.129835         2.952241
 H        -3.225059        -1.709031         3.784513
 H        -4.291289        -0.478951         3.243441
