19
Iteration:  4646
 C         1.883075        -0.131726        -0.115091
 C         0.510772        -0.603240        -0.177504
 C        -0.656559        -0.890178        -0.421074
 C        -2.109124        -0.637858        -0.279999
 C        -2.605129         0.744185        -0.874682
 O        -2.188030        -0.674280         1.289953
 C        -3.544586        -0.781689         1.635552
 C        -3.753341        -0.620222         3.181971
 O        -4.529459        -0.900096         0.976040
 H         2.071147         0.987677        -0.070976
 H         2.417561        -0.720461         0.671948
 H         2.373010        -0.269683        -1.085547
 H        -2.696780        -1.516886        -0.637837
 H        -3.650827         1.007878        -0.579383
 H        -1.911436         1.437897        -0.374866
 H        -2.537753         0.727527        -1.889965
 H        -2.784783        -0.652634         3.687751
 H        -4.149728         0.333863         3.501017
 H        -4.464336        -1.431151         3.446969
