19
Iteration:  1122charge 0 multiplicity 1
 C         1.725847         0.141391         0.360610
 C         0.368033        -0.043279        -0.084217
 C        -0.824038        -0.160286        -0.241910
 C        -2.265576        -0.191455        -0.323080
 C        -2.931425         0.872221        -1.141521
 O        -3.018156        -0.013393         1.035720
 C        -3.262315        -1.270706         1.559149
 C        -3.814110        -1.179134         2.983416
 O        -3.012078        -2.330845         1.072193
 H         2.077011        -0.882089         0.876855
 H         2.323055         0.244019        -0.459683
 H         1.894069         0.929157         1.063397
 H        -2.615933        -1.114048        -0.713875
 H        -2.641236         1.895745        -0.856635
 H        -2.785418         0.758050        -2.154598
 H        -4.002626         0.888454        -0.898792
 H        -3.226176        -1.819404         3.679320
 H        -3.811013        -0.194627         3.478384
 H        -4.771532        -1.563247         3.218412
