19
Iteration:   965charge 0 multiplicity 1
 C         1.930282         0.682927        -0.150097
 C         0.588031         0.239354         0.042121
 C        -0.572857        -0.123698        -0.075287
 C        -2.034485        -0.391059        -0.030949
 C        -2.903717         0.421611        -1.079557
 O        -2.487398        -0.382036         1.292178
 C        -3.476178        -1.263539         1.601440
 C        -4.053650        -1.292376         2.990315
 O        -3.931423        -2.043561         0.845901
 H         2.361707         1.332401         0.591632
 H         2.639056        -0.116629        -0.129355
 H         2.097490         1.299631        -1.183819
 H        -2.058485        -1.487698        -0.472861
 H        -3.473225         1.238911        -0.581773
 H        -2.116890         1.005669        -1.749392
 H        -3.618506        -0.254082        -1.583412
 H        -5.046107        -0.857855         2.722790
 H        -4.422204        -2.281540         3.203179
 H        -3.486188        -0.690221         3.726065
