19
Iteration:  3834charge 0 multiplicity 1
 C         2.220426        -0.099478        -0.473868
 C         0.747743        -0.334980        -0.281947
 C        -0.472645        -0.369139         0.057074
 C        -2.007747        -0.627167         0.015060
 C        -2.630249         0.609747        -0.665388
 O        -2.429753        -0.530581         1.413557
 C        -3.794149        -0.957246         1.598031
 C        -4.190911        -0.449404         2.939871
 O        -4.340531        -1.567071         0.740931
 H         2.538920        -0.707734        -1.428464
 H         2.456428         0.980546        -0.548381
 H         2.700428        -0.505173         0.425168
 H        -2.334209        -1.618092        -0.356383
 H        -3.713634         0.355435        -0.920547
 H        -2.665116         1.501297        -0.023332
 H        -2.259117         0.913832        -1.619373
 H        -5.244100        -0.749985         3.136095
 H        -3.616384        -0.887513         3.774298
 H        -4.115043         0.668974         3.144190
