19
Iteration:  2965charge 0 multiplicity 1
 C         1.931250         0.019416         0.085739
 C         0.580672        -0.256513         0.019528
 C        -0.574508        -0.551145        -0.160816
 C        -2.052886        -0.546470        -0.282463
 C        -2.471327         0.654885        -1.071990
 O        -2.586336        -0.304068         1.123391
 C        -3.639552        -0.931853         1.573866
 C        -3.824783        -0.680339         3.085618
 O        -4.331893        -1.770700         0.940899
 H         2.069454         0.676345         1.107714
 H         2.657024        -0.795428         0.198739
 H         2.224603         0.528060        -0.833297
 H        -2.605655        -1.440051        -0.608940
 H        -3.547657         0.713589        -1.352945
 H        -2.319979         1.568129        -0.527952
 H        -1.943504         0.797392        -2.046374
 H        -2.914440        -1.094266         3.593584
 H        -3.743732         0.394628         3.146937
 H        -4.689915        -0.993218         3.614834
