19
Iteration:  2011
 C         1.870340        -0.074334         0.017673
 C         0.403481        -0.056282         0.166946
 C        -0.767807        -0.273408         0.032148
 C        -2.149458        -0.271268        -0.248070
 C        -2.660348         0.776312        -1.230306
 O        -2.871423        -0.021231         1.007027
 C        -3.418363        -1.118625         1.623167
 C        -3.884991        -0.884611         3.017077
 O        -3.538612        -2.248727         1.079322
 H         2.202573         0.575404        -0.739936
 H         2.338137         0.168426         0.955348
 H         2.243612        -1.144338        -0.259198
 H        -2.515306        -1.222394        -0.785764
 H        -2.474794         1.823915        -1.124860
 H        -2.281561         0.452294        -2.280489
 H        -3.750850         0.706238        -1.253162
 H        -4.956016        -1.232678         2.965849
 H        -3.211094        -1.493256         3.688988
 H        -3.849766         0.174983         3.236411
