19
Iteration:  2990
 C         1.957429        -0.120892         0.194131
 C         0.530240        -0.205237        -0.109883
 C        -0.671942        -0.475460        -0.029435
 C        -2.134481        -0.443432        -0.217465
 C        -2.453680         0.738042        -1.226968
 O        -2.716678        -0.197968         1.087206
 C        -3.591718        -1.016865         1.571497
 C        -3.706425        -0.675766         3.059744
 O        -4.204059        -1.901052         1.003722
 H         2.283965         0.222976         1.324487
 H         2.388707        -1.190212         0.095549
 H         2.534744         0.422977        -0.695716
 H        -2.599815        -1.408544        -0.572912
 H        -3.529497         0.688264        -1.693809
 H        -2.441584         1.699410        -0.703965
 H        -1.796263         0.862729        -2.043867
 H        -2.804976        -0.812245         3.617723
 H        -4.028503         0.366248         3.112017
 H        -4.549092        -1.212624         3.523635
