19
Iteration:  3490
 C         1.861629        -0.232527         0.178250
 C         0.491424        -0.403437         0.005702
 C        -0.653497        -0.482270        -0.371924
 C        -2.162984        -0.395704        -0.391328
 C        -2.467251         0.882402        -1.231055
 O        -2.701034        -0.150606         1.044705
 C        -3.612656        -1.053720         1.664124
 C        -3.810769        -0.360458         3.083338
 O        -3.972074        -2.131784         1.300066
 H         2.503089        -0.824015        -0.374250
 H         1.977174         0.761062        -0.157115
 H         2.132079        -0.367422         1.218688
 H        -2.478034        -1.430303        -0.667816
 H        -3.596228         0.965378        -1.525847
 H        -1.931573         1.687155        -0.845844
 H        -2.121543         0.592495        -2.216535
 H        -4.683196         0.320868         3.013639
 H        -3.993053        -1.166318         3.772711
 H        -2.903185         0.176932         3.344809
