19
Iteration:  4284
 C         1.681835        -1.074813        -0.119355
 C         0.186434        -0.847071        -0.103770
 C        -0.973059        -0.465393        -0.166271
 C        -2.365653         0.010286        -0.269417
 C        -2.479882         1.421477        -0.934219
 O        -3.010569         0.188800         1.017836
 C        -3.188856        -0.924677         1.706765
 C        -4.025909        -0.636676         2.914876
 O        -2.927986        -2.045136         1.310804
 H         2.047707        -2.002144         0.358411
 H         1.911504        -1.006282        -1.179134
 H         2.041906        -0.217808         0.356447
 H        -2.777020        -0.740335        -0.909230
 H        -3.490378         1.665089        -1.313337
 H        -2.112592         2.380661        -0.323847
 H        -1.924066         1.289271        -1.933794
 H        -4.971923        -1.178637         2.774846
 H        -3.508415        -1.064082         3.794056
 H        -4.307252         0.441506         3.103721
