19
Iteration:  4125
 C         1.105049        -1.372743         0.560713
 C         0.048822        -0.615566        -0.034244
 C        -1.039898        -0.296244        -0.420449
 C        -2.441419         0.094833        -0.536473
 C        -2.670201         1.577928        -1.099098
 O        -3.154515         0.219133         0.922547
 C        -2.931199        -1.010745         1.594933
 C        -3.449365        -0.827519         3.008049
 O        -2.556389        -2.038106         1.165730
 H         1.050159        -2.428244         0.476965
 H         2.140268        -1.107524         0.340332
 H         0.884693        -1.168756         1.648814
 H        -3.142053        -0.510549        -0.986330
 H        -3.750143         1.681161        -1.429596
 H        -2.689916         2.350452        -0.267757
 H        -1.911733         1.806030        -1.819624
 H        -3.698790         0.176353         3.279951
 H        -4.373315        -1.404941         3.075572
 H        -2.673737        -1.215959         3.691044
