19
Iteration:  4444charge 0 multiplicity 1
 C         1.979128        -0.769492        -0.327122
 C         0.587651        -0.459296        -0.415870
 C        -0.604748        -0.249884        -0.183271
 C        -2.060563        -0.274630        -0.016707
 C        -2.758588         0.830369        -0.945986
 O        -2.398722        -0.194715         1.472934
 C        -3.484493        -0.890494         1.754519
 C        -4.122972        -0.589886         3.079663
 O        -4.102760        -1.607509         0.900647
 H         2.422730        -0.861769         0.695894
 H         2.227790        -1.749219        -0.830213
 H         2.699699        -0.083315        -0.910527
 H        -2.361215        -1.350846        -0.424640
 H        -3.618303         0.316296        -1.335286
 H        -2.911158         1.776356        -0.541004
 H        -2.141194         0.903647        -1.864844
 H        -3.760375        -1.344752         3.771340
 H        -3.840153         0.391988         3.428828
 H        -5.220090        -0.643223         3.018805
