19
Iteration:  2350
 C         1.525410        -0.630153         0.424514
 C         0.106852        -0.437553         0.147479
 C        -1.013353        -0.404114        -0.381322
 C        -2.392951        -0.005704        -0.455669
 C        -2.808983         1.265039        -1.156186
 O        -2.857117         0.179368         0.992463
 C        -3.089931        -1.054689         1.601784
 C        -4.076313        -1.046560         2.804288
 O        -2.558850        -2.116698         1.289369
 H         1.711266        -1.243528         1.185686
 H         1.966058        -1.072410        -0.475782
 H         2.048725         0.393031         0.650051
 H        -2.884089        -0.840494        -0.866593
 H        -2.120159         2.034289        -0.835260
 H        -2.505535         0.990887        -2.169792
 H        -3.935389         1.299866        -1.130114
 H        -4.992938        -0.480111         2.981808
 H        -4.258537        -2.094076         3.046057
 H        -3.454029        -0.555131         3.606034
