19
Iteration:  2675charge 0 multiplicity 1
 C         2.030045        -0.127979         0.041828
 C         0.602029        -0.071522         0.004800
 C        -0.578706        -0.235234        -0.180260
 C        -1.981365        -0.436430        -0.186892
 C        -2.875293         0.656194        -0.916764
 O        -2.399697        -0.411074         1.205304
 C        -3.584210        -1.064686         1.578048
 C        -4.025722        -0.584661         2.912830
 O        -4.128885        -1.957227         0.905371
 H         2.441453         0.507438        -0.823525
 H         2.451118         0.427796         0.834701
 H         2.410290        -1.093891         0.019592
 H        -2.147985        -1.370235        -0.738422
 H        -3.500910         1.231933        -0.187363
 H        -2.131503         1.244604        -1.450006
 H        -3.478805         0.181327        -1.730445
 H        -4.058692         0.554461         2.948396
 H        -5.105914        -0.794046         2.796233
 H        -3.563205        -0.971357         3.837903
