19
Iteration:  2246charge 0 multiplicity 1
 C         1.504711        -0.685561         0.171450
 C         0.159715        -0.328188         0.336222
 C        -0.990821        -0.179966        -0.069130
 C        -2.372285        -0.021994        -0.495114
 C        -2.634907         1.321501        -1.012641
 O        -3.348976        -0.250507         0.660396
 C        -3.077968        -1.170931         1.581184
 C        -3.915096        -0.697484         2.848121
 O        -2.429130        -2.183161         1.365282
 H         2.203209        -0.696160         1.113983
 H         1.495993        -1.745833        -0.138449
 H         1.985927        -0.174331        -0.538499
 H        -2.657508        -0.817950        -1.293370
 H        -2.912750         1.983005        -0.117796
 H        -1.809768         1.623947        -1.652404
 H        -3.581753         1.319988        -1.465546
 H        -3.948043         0.402029         3.065923
 H        -4.954019        -1.049634         2.845354
 H        -3.533512        -1.101266         3.767968
