19
Iteration:   682
 C         1.870151         0.602474         0.134869
 C         0.466568         0.319217        -0.021513
 C        -0.689899         0.162636        -0.286297
 C        -2.012265        -0.416571        -0.151215
 C        -3.035124         0.272881        -0.995900
 O        -2.411583        -0.368982         1.275832
 C        -3.432719        -1.244710         1.559230
 C        -3.911762        -1.259709         3.025304
 O        -3.820338        -2.104673         0.753655
 H         2.455843        -0.069878        -0.654893
 H         1.972743         1.653041        -0.022993
 H         2.189940         0.300470         1.141906
 H        -1.953718        -1.451177        -0.463917
 H        -3.213254         1.262410        -0.601071
 H        -2.663791         0.322692        -2.028601
 H        -4.011351        -0.225933        -0.900953
 H        -4.820748        -1.974552         3.086486
 H        -3.059371        -1.565743         3.775178
 H        -4.335355        -0.242208         3.334908
