19
Iteration:  4833
 C         1.947248        -0.701258        -0.555116
 C         0.585968        -0.548767        -0.213969
 C        -0.639201        -0.514631        -0.115821
 C        -2.103796        -0.172011        -0.093412
 C        -2.383675         0.925863        -1.060597
 O        -2.573530        -0.034434         1.414765
 C        -3.637838        -0.899302         1.737871
 C        -4.164187        -0.649655         3.281491
 O        -4.016522        -1.749379         0.982977
 H         2.191550         0.005627        -1.412193
 H         2.554130        -0.227233         0.282933
 H         2.340692        -1.610414        -0.949090
 H        -2.672096        -1.074369        -0.556420
 H        -3.357884         1.348942        -0.901399
 H        -1.730215         1.780054        -0.970723
 H        -2.476321         0.508315        -2.107570
 H        -3.931558        -1.472630         3.888509
 H        -3.624212         0.136819         3.805668
 H        -5.213885        -0.467929         3.125423
