19
Iteration:  2377charge 0 multiplicity 1
 C         1.533131        -0.529753         0.470569
 C         0.193991        -0.511114        -0.100564
 C        -0.992372        -0.278223        -0.337770
 C        -2.408036        -0.053913        -0.286836
 C        -2.756402         1.194903        -1.261827
 O        -2.884876         0.148441         1.090900
 C        -3.009615        -1.086721         1.714062
 C        -4.037777        -1.005975         2.840823
 O        -2.738577        -2.110108         1.133620
 H         1.499708        -1.514903         1.248436
 H         2.274930        -0.693260        -0.372271
 H         1.782174         0.335081         0.999294
 H        -2.772534        -1.076142        -0.719783
 H        -1.912272         1.860749        -0.954687
 H        -2.565334         0.851996        -2.311494
 H        -3.745385         1.583298        -1.099370
 H        -5.090466        -0.726949         2.518788
 H        -4.138061        -2.001608         3.340393
 H        -3.707303        -0.311280         3.614205
