19
Iteration:  1935charge 0 multiplicity 1
 C         1.944376         0.182090         0.131679
 C         0.489665         0.075493        -0.199968
 C        -0.664737        -0.350822        -0.125577
 C        -2.132086        -0.415528        -0.158229
 C        -2.668820         0.558982        -1.162224
 O        -2.588004        -0.266058         1.198764
 C        -3.518788        -1.094944         1.634931
 C        -3.994889        -0.805484         3.075591
 O        -3.871517        -2.088641         0.950852
 H         2.387588         0.440229        -0.808320
 H         2.183110         0.997167         0.788972
 H         2.384930        -0.749182         0.549117
 H        -2.518302        -1.360112        -0.625309
 H        -2.483274         1.566357        -0.882243
 H        -2.119677         0.329762        -2.124374
 H        -3.719484         0.487989        -1.366355
 H        -4.568625         0.139394         3.126488
 H        -4.672327        -1.603497         3.299967
 H        -3.080711        -0.714076         3.614826
