19
Iteration:  3461
 C         1.929338        -0.415768         0.026012
 C         0.466564        -0.270010         0.016657
 C        -0.736972        -0.506214         0.031919
 C        -2.217908        -0.420710        -0.341800
 C        -2.527246         0.899027        -1.207931
 O        -2.877131        -0.031653         0.913349
 C        -3.424988        -1.001641         1.679571
 C        -3.900790        -0.399001         2.968068
 O        -3.739682        -2.173247         1.308444
 H         2.373136        -1.331285        -0.583746
 H         2.507569         0.520632        -0.345898
 H         2.245562        -0.411746         1.127472
 H        -2.677665        -1.387737        -0.752610
 H        -3.562558         1.127727        -1.491592
 H        -2.001406         1.731016        -0.680847
 H        -1.931724         0.851141        -2.205116
 H        -4.787269         0.158732         2.597124
 H        -4.285073        -1.243025         3.535597
 H        -3.178740         0.287845         3.509200
