19
Iteration:   460charge 0 multiplicity 1
 C         1.707225         0.212964         0.222449
 C         0.268910         0.179256        -0.075564
 C        -0.881969        -0.204094        -0.163733
 C        -2.364630        -0.232264        -0.328919
 C        -3.000463         1.039179        -0.965299
 O        -3.088054        -0.223509         0.895614
 C        -3.141583        -1.368719         1.593311
 C        -4.006095        -1.203579         2.899852
 O        -2.556358        -2.363115         1.218674
 H         1.836078         0.508117         1.285332
 H         2.081330        -0.777306         0.097027
 H         2.105519         0.929554        -0.477010
 H        -2.705108        -1.089863        -0.822646
 H        -2.636761         1.937223        -0.447264
 H        -2.755181         1.047341        -2.068538
 H        -4.040081         0.799417        -0.914977
 H        -3.507930        -0.446858         3.564428
 H        -4.992276        -0.732148         2.739154
 H        -4.124244        -2.212571         3.346123
