19
Iteration:  2441
 C         1.765247        -0.521850         0.287340
 C         0.317679        -0.284586         0.213945
 C        -0.822626        -0.162595        -0.239792
 C        -2.260757        -0.117860        -0.399122
 C        -2.743289         1.204429        -1.120034
 O        -3.058405        -0.072368         0.824681
 C        -3.234447        -1.155643         1.559287
 C        -3.809247        -0.799073         2.950016
 O        -3.195890        -2.307442         1.266921
 H         1.961430        -1.547240         0.175739
 H         2.212378        -0.141380        -0.661482
 H         2.333921        -0.187685         1.105129
 H        -2.598652        -1.031374        -0.843536
 H        -2.536947         1.991205        -0.351822
 H        -2.220695         1.619775        -1.980609
 H        -3.770302         1.164905        -1.367978
 H        -4.854465        -1.148481         3.091685
 H        -3.116826        -1.192831         3.693450
 H        -3.988617         0.250400         2.972477
