19
Iteration:  3173
 C         1.585218        -0.869274         0.395155
 C         0.130817        -0.571392         0.101985
 C        -1.049991        -0.378136        -0.201797
 C        -2.438252        -0.126949        -0.517381
 C        -2.572420         1.344076        -1.143403
 O        -3.244380        -0.049523         0.702782
 C        -3.106949        -1.024964         1.710538
 C        -4.050684        -0.648871         2.680556
 O        -2.390305        -2.021515         1.553089
 H         1.499586        -1.521178         1.312745
 H         2.220421        -1.393220        -0.302389
 H         2.147453         0.079622         0.646207
 H        -3.030185        -0.852342        -1.146782
 H        -3.711800         1.623472        -1.197201
 H        -2.236192         1.895940        -0.265640
 H        -1.982819         1.602008        -1.974295
 H        -3.739967         0.375423         3.000339
 H        -5.076868        -0.430396         2.239645
 H        -3.985851        -1.280087         3.605792
