19
Iteration:   425
 C         1.635142         0.025638         0.286676
 C         0.250829         0.026227        -0.043446
 C        -0.945762         0.218234        -0.202517
 C        -2.390881        -0.086879        -0.423236
 C        -3.082183         1.124429        -1.121834
 O        -3.083749        -0.219982         0.891701
 C        -3.078914        -1.498781         1.636080
 C        -4.060705        -1.264875         2.870098
 O        -2.366326        -2.436306         1.411270
 H         1.922804         0.709555         0.966115
 H         2.105642        -0.948094         0.509225
 H         2.239045         0.327353        -0.678625
 H        -2.449204        -1.009219        -0.874380
 H        -2.816028         2.102627        -0.851637
 H        -2.873811         1.011647        -2.240610
 H        -4.181469         1.143083        -0.972623
 H        -3.423996        -1.034561         3.701344
 H        -4.805319        -0.522863         2.703099
 H        -4.515977        -2.155667         3.192873
