19
Iteration:  1215
 C         1.571298        -0.309909         0.391257
 C         0.214871        -0.100333         0.056416
 C        -0.990573        -0.014297        -0.055067
 C        -2.374636        -0.085426        -0.502277
 C        -2.963580         1.161749        -1.099325
 O        -3.298549        -0.260268         0.662783
 C        -3.082566        -1.270075         1.614975
 C        -3.722914        -1.054703         3.010644
 O        -2.475586        -2.201939         1.262548
 H         1.905028        -1.195682         0.017273
 H         2.365821         0.514869         0.055709
 H         1.784973        -0.516405         1.471675
 H        -2.506161        -1.026943        -1.115723
 H        -3.325932         1.971812        -0.433265
 H        -2.326609         1.565974        -1.925856
 H        -3.922268         0.816866        -1.574108
 H        -3.425481        -0.069335         3.444239
 H        -4.839744        -1.130874         2.850060
 H        -3.229286        -1.801513         3.716390
