19
Iteration:  4350charge 0 multiplicity 1
 C         1.714467        -0.669837        -0.365037
 C         0.303805        -0.612592        -0.228665
 C        -0.887755        -0.540004        -0.065351
 C        -2.242312        -0.124459        -0.223103
 C        -2.013298         1.266302        -0.931428
 O        -2.908900         0.095338         1.097093
 C        -3.460583        -1.034623         1.758515
 C        -4.041579        -0.540323         2.990661
 O        -3.600147        -2.219831         1.331806
 H         2.358700        -1.252223         0.301248
 H         2.079610        -1.057982        -1.304662
 H         2.142394         0.278443        -0.493495
 H        -2.889811        -0.776144        -0.692455
 H        -2.963141         1.797970        -0.967822
 H        -1.008953         1.689696        -0.450557
 H        -1.689026         1.085425        -2.024158
 H        -4.612115        -1.333717         3.501259
 H        -3.220873        -0.108629         3.603165
 H        -4.640577         0.386897         2.772541
