19
Iteration:  3790charge 0 multiplicity 1
 C         1.999894         0.188426        -0.655187
 C         0.712218        -0.340578         0.001574
 C        -0.467707        -0.682487         0.182957
 C        -1.864262        -0.711020         0.003447
 C        -2.377789         0.499178        -0.819742
 O        -2.423803        -0.650375         1.408445
 C        -3.697911        -0.910293         1.604431
 C        -4.202514        -0.519275         2.953513
 O        -4.552213        -1.321199         0.777410
 H         2.129894        -0.227013        -1.694294
 H         1.886134         1.266017        -0.711817
 H         2.785576         0.000959         0.060404
 H        -2.270875        -1.541343        -0.541508
 H        -3.479079         0.534020        -1.066385
 H        -2.016379         1.381613        -0.221841
 H        -1.810225         0.647745        -1.719418
 H        -5.315666        -0.501753         3.024978
 H        -3.796298        -1.167996         3.760652
 H        -3.833510         0.517829         3.215559
