19
Iteration:   179charge 0 multiplicity 1
 C         1.542196         0.339310         0.294099
 C         0.126536         0.130093         0.216758
 C        -1.002794        -0.174387        -0.102475
 C        -2.423592        -0.215912        -0.372375
 C        -2.886268         1.002521        -1.107204
 O        -3.143213        -0.147996         0.973462
 C        -3.048897        -1.383786         1.527100
 C        -3.611890        -1.309290         2.882110
 O        -2.683322        -2.424346         1.040845
 H         2.098896        -0.395323        -0.237252
 H         1.908023         1.323675         0.003694
 H         1.919424         0.150275         1.373229
 H        -2.856652        -1.028446        -0.950109
 H        -2.895722         1.930736        -0.525482
 H        -2.257666         1.354261        -2.029794
 H        -3.854486         0.761697        -1.575429
 H        -4.424899        -2.006996         3.151458
 H        -2.892419        -1.634158         3.636422
 H        -3.949454        -0.312050         3.184027
