19
Iteration:  4857
 C         1.874208        -0.699089        -0.545092
 C         0.505706        -0.526195        -0.127190
 C        -0.708843        -0.498597         0.021593
 C        -2.172425        -0.308655        -0.063064
 C        -2.381804         1.079211        -0.905158
 O        -2.607306        -0.036564         1.242197
 C        -3.548874        -0.968523         1.688096
 C        -3.989673        -0.519946         2.985498
 O        -3.987601        -1.869650         1.117688
 H         2.020073        -0.224733        -1.566947
 H         2.635945        -0.205476         0.121720
 H         2.152975        -1.766473        -0.821614
 H        -2.582648        -1.213004        -0.600329
 H        -3.345750         1.412119        -0.668030
 H        -1.739902         1.832302        -0.543209
 H        -2.404750         1.000149        -2.028800
 H        -3.996084        -1.418609         3.634598
 H        -3.281037         0.136720         3.518777
 H        -4.989082        -0.088617         2.875288
