19
Iteration:  1191charge 0 multiplicity 1
 C         1.623496        -0.229118         0.414877
 C         0.209875        -0.036302         0.111051
 C        -0.985153        -0.041889        -0.181818
 C        -2.459234        -0.167507        -0.404940
 C        -3.002792         1.069928        -1.106463
 O        -3.165428        -0.087940         0.875390
 C        -3.104731        -1.308678         1.571845
 C        -3.730264        -1.014883         2.852957
 O        -2.542499        -2.341810         1.196235
 H         1.882288        -1.267100         0.111473
 H         2.295684         0.443696        -0.233899
 H         1.976722        -0.173185         1.372152
 H        -2.676313        -1.138903        -0.812666
 H        -3.423871         1.758497        -0.483745
 H        -2.122505         1.503902        -1.704393
 H        -3.744086         0.871107        -1.814326
 H        -3.068369        -0.265829         3.395906
 H        -4.736543        -0.560682         2.659108
 H        -3.753655        -1.897123         3.590615
