19
Iteration:  1461charge 0 multiplicity 1
 C         1.830322        -0.048793         0.058711
 C         0.344795         0.047688         0.061312
 C        -0.854565        -0.128336        -0.098127
 C        -2.329524        -0.234454        -0.323130
 C        -2.657685         0.921961        -1.217166
 O        -2.999437         0.011360         1.034268
 C        -3.359547        -1.206415         1.627418
 C        -3.941926        -1.194988         3.058042
 O        -3.149502        -2.311717         1.181951
 H         2.220102         0.945271         0.085492
 H         2.255633        -0.472484         0.923226
 H         2.285345        -0.608071        -0.900328
 H        -2.678774        -1.246259        -0.728075
 H        -2.266956         1.814254        -0.798795
 H        -2.056850         0.868496        -2.221430
 H        -3.677371         1.018398        -1.494772
 H        -3.088744        -1.616541         3.560938
 H        -4.312525        -0.225262         3.341011
 H        -4.777877        -1.888293         3.095556
