19
Iteration:    63charge 0 multiplicity 1
 C         1.792518         0.576287         0.277650
 C         0.375597         0.460328        -0.062157
 C        -0.776877         0.061817        -0.162373
 C        -2.158657        -0.316176        -0.214802
 C        -3.114146         0.653769        -0.891361
 O        -2.644958        -0.267353         1.197332
 C        -3.305840        -1.440073         1.455202
 C        -3.749975        -1.299020         2.863971
 O        -3.444224        -2.471161         0.816599
 H         2.097477        -0.225093         1.110735
 H         2.352338         0.380818        -0.639895
 H         2.103463         1.577761         0.711099
 H        -2.283973        -1.377547        -0.543127
 H        -3.217167         1.620869        -0.313371
 H        -2.729975         0.987957        -1.811625
 H        -4.000796         0.062119        -1.139013
 H        -4.678472        -1.934033         2.948152
 H        -3.021908        -1.749810         3.561096
 H        -4.033974        -0.236410         3.009249
