19
Iteration:  2683
 C         2.075969        -0.058371        -0.014395
 C         0.673881        -0.102973         0.007673
 C        -0.514222        -0.260342        -0.168428
 C        -2.021269        -0.460798        -0.152994
 C        -2.887729         0.613906        -0.904280
 O        -2.448179        -0.402996         1.187393
 C        -3.599107        -1.044674         1.532196
 C        -4.075943        -0.571064         2.955099
 O        -4.123105        -1.914928         0.868383
 H         2.400291         0.449308        -0.841574
 H         2.360605         0.334091         1.012562
 H         2.389483        -1.163654        -0.026330
 H        -2.164769        -1.523462        -0.402734
 H        -3.431325         1.170331        -0.241332
 H        -2.280714         1.497168        -1.284747
 H        -3.527120         0.132018        -1.708451
 H        -4.005322         0.507865         2.898607
 H        -5.054905        -1.014966         3.201021
 H        -3.464694        -1.032041         3.756210
