19
Iteration:  1551
 C         2.006342         0.352698         0.099245
 C         0.574346         0.023627        -0.113593
 C        -0.612197        -0.223451        -0.294360
 C        -2.155317        -0.369376        -0.343782
 C        -2.767652         0.893381        -0.963604
 O        -2.639019        -0.368906         1.087841
 C        -3.450387        -1.262430         1.657213
 C        -4.014944        -0.943506         2.965322
 O        -3.899379        -2.322432         1.164857
 H         2.143314         1.197668         0.890529
 H         2.622050        -0.437178         0.414075
 H         2.239016         0.785182        -0.893070
 H        -2.450126        -1.308385        -0.817223
 H        -2.163216         1.758348        -0.563541
 H        -2.432657         0.868552        -1.987118
 H        -3.894074         0.756095        -0.842330
 H        -3.502214        -0.102978         3.423423
 H        -5.090819        -0.739987         2.881906
 H        -3.921127        -1.726641         3.691087
