19
Iteration:  2170
 C         1.648378        -0.495105         0.350891
 C         0.284728        -0.386768        -0.143423
 C        -0.931973        -0.274913        -0.365441
 C        -2.377974        -0.135867        -0.377840
 C        -2.606075         1.176207        -1.226754
 O        -3.134397         0.160041         1.013440
 C        -3.285865        -1.131717         1.637361
 C        -4.072973        -1.046851         2.912921
 O        -2.651806        -2.139065         1.370035
 H         1.824357         0.408920         1.134711
 H         1.835961        -1.409952         0.958551
 H         2.447385        -0.496996        -0.324957
 H        -2.850550        -0.952187        -0.917212
 H        -1.893797         2.055543        -0.796409
 H        -2.427630         0.985689        -2.281018
 H        -3.602942         1.534994        -1.038743
 H        -3.463851        -0.587994         3.733485
 H        -5.024827        -0.548433         3.151752
 H        -4.247831        -2.118488         3.108054
