19
Iteration:  2333charge 0 multiplicity 1
 C         1.544538        -0.673413         0.388364
 C         0.176049        -0.428475         0.124919
 C        -0.978839        -0.321920        -0.285600
 C        -2.424103        -0.056790        -0.391467
 C        -2.788112         1.290847        -1.142404
 O        -3.027565         0.072454         0.904126
 C        -3.134086        -1.081675         1.553020
 C        -3.965544        -0.975275         2.784845
 O        -2.504232        -2.097901         1.352021
 H         1.603928        -1.235981         1.456935
 H         1.973284        -1.282608        -0.452527
 H         2.088817         0.222982         0.422263
 H        -3.020753        -0.884642        -0.932136
 H        -2.448535         2.185694        -0.521740
 H        -2.542403         1.504381        -2.183465
 H        -3.854837         1.399878        -1.038683
 H        -4.718652        -0.225315         2.447575
 H        -4.468345        -1.928064         3.012221
 H        -3.333561        -0.724047         3.631820
