19
Iteration:  4121
 C         1.107570        -1.375054         0.579618
 C         0.076989        -0.585402        -0.070727
 C        -1.053192        -0.305853        -0.398670
 C        -2.455512         0.098035        -0.563892
 C        -2.670892         1.576684        -1.067743
 O        -3.160020         0.193544         0.907102
 C        -2.948589        -1.010852         1.620734
 C        -3.439256        -0.791075         3.044749
 O        -2.572929        -2.050677         1.120674
 H         1.113641        -2.510988         0.500392
 H         2.157304        -0.961053         0.359503
 H         0.939685        -1.129107         1.698008
 H        -3.259707        -0.611983        -1.014857
 H        -3.604839         1.759728        -1.497678
 H        -2.503029         2.244407        -0.190453
 H        -1.922509         1.745786        -1.865304
 H        -3.604051         0.290155         3.300573
 H        -4.341649        -1.438618         3.079133
 H        -2.733778        -1.278316         3.758679
