19
Iteration:    66charge 0 multiplicity 1
 C         1.804959         0.568452         0.297564
 C         0.362606         0.479515        -0.051515
 C        -0.793838         0.053006        -0.164441
 C        -2.190612        -0.300227        -0.210302
 C        -3.104123         0.676252        -0.890833
 O        -2.653743        -0.276523         1.181421
 C        -3.298901        -1.434031         1.451784
 C        -3.738025        -1.291974         2.875219
 O        -3.425789        -2.480849         0.822713
 H         2.080735        -0.278593         1.033284
 H         2.300319         0.395648        -0.653103
 H         2.075075         1.427945         0.650400
 H        -2.275591        -1.318846        -0.640863
 H        -3.215922         1.553280        -0.323162
 H        -2.656288         0.799755        -1.862681
 H        -3.930920         0.053822        -1.064620
 H        -4.648248        -1.872686         2.872733
 H        -3.003222        -1.740770         3.554951
 H        -4.047183        -0.257769         2.989177
