19
Iteration:   846charge 0 multiplicity 1
 C         1.810886         1.051256        -0.195023
 C         0.554315         0.284614        -0.106575
 C        -0.468385        -0.352722         0.045149
 C        -1.877886        -0.613202         0.033196
 C        -2.730564         0.270440        -0.840989
 O        -2.366918        -0.649859         1.373060
 C        -3.566642        -1.270770         1.496214
 C        -3.979850        -1.188452         2.942143
 O        -4.276226        -1.776976         0.648292
 H         1.574912         2.147445        -0.549235
 H         2.361390         1.186342         0.662547
 H         2.527947         0.694281        -1.060867
 H        -2.048910        -1.647626        -0.245057
 H        -2.740223         1.347472        -0.700186
 H        -2.263262         0.082234        -1.901550
 H        -3.754415        -0.008732        -0.677824
 H        -3.394244        -0.578810         3.760684
 H        -5.009101        -0.660758         2.838038
 H        -3.967893        -2.256657         3.362200
