19
Iteration:  1229charge 0 multiplicity 1
 C         1.632843        -0.364012         0.406621
 C         0.196733        -0.145686         0.063645
 C        -1.015749        -0.013375        -0.041138
 C        -2.432644        -0.010671        -0.423781
 C        -2.973914         1.240371        -1.198571
 O        -3.414627        -0.274220         0.642190
 C        -3.069492        -1.256749         1.562958
 C        -3.679898        -1.065415         2.977400
 O        -2.365985        -2.249332         1.369020
 H         2.019756        -1.141733        -0.218024
 H         2.182138         0.545062         0.172333
 H         1.702901        -0.580602         1.576894
 H        -2.509243        -0.776301        -1.267533
 H        -2.800386         2.209052        -0.539107
 H        -2.372964         1.341641        -2.061739
 H        -4.086044         1.029335        -1.535320
 H        -3.764339        -0.020677         3.218395
 H        -4.703038        -1.476463         3.003725
 H        -3.156907        -1.711437         3.621601
