19
Iteration:  3787
 C         1.978823         0.191506        -0.640924
 C         0.704963        -0.334561        -0.020439
 C        -0.441878        -0.671773         0.192724
 C        -1.878345        -0.731572        -0.008731
 C        -2.374942         0.492909        -0.833806
 O        -2.431473        -0.671285         1.402589
 C        -3.704181        -0.888524         1.631052
 C        -4.208493        -0.531598         2.954086
 O        -4.534529        -1.299697         0.778841
 H         2.042909        -0.237988        -1.722732
 H         1.798117         1.297976        -0.687330
 H         2.870320         0.037192         0.106691
 H        -2.256434        -1.606502        -0.531640
 H        -3.335476         0.680344        -1.095952
 H        -1.950859         1.368648        -0.282966
 H        -1.741626         0.554625        -1.743314
 H        -5.290393        -0.507776         3.054887
 H        -3.851786        -1.163161         3.801663
 H        -3.854559         0.448276         3.241874
