19
Iteration:    48charge 0 multiplicity 1
 C         1.826775         0.657938         0.234142
 C         0.471103         0.340830        -0.067542
 C        -0.718338         0.121299        -0.192787
 C        -2.120637        -0.301832        -0.199697
 C        -3.136560         0.629198        -0.964944
 O        -2.605475        -0.362577         1.183130
 C        -3.321728        -1.469437         1.559640
 C        -3.903072        -1.357965         2.964355
 O        -3.500849        -2.360196         0.754444
 H         2.030722         0.130651         1.102835
 H         2.633829         0.387321        -0.501294
 H         1.866195         1.896712         0.441904
 H        -2.107970        -1.309910        -0.630972
 H        -3.382028         1.252918        -0.082537
 H        -2.667075         1.182085        -1.924526
 H        -4.181491         0.188452        -1.139644
 H        -4.750898        -1.982443         3.208143
 H        -2.990804        -1.643853         3.516674
 H        -4.007503        -0.328811         3.315936
