19
Iteration:  2166charge 0 multiplicity 1
 C         1.598939        -0.489940         0.353263
 C         0.299792        -0.347696        -0.129230
 C        -0.902346        -0.288640        -0.365700
 C        -2.379700        -0.125578        -0.344257
 C        -2.601456         1.158025        -1.217670
 O        -3.082992         0.159774         1.011663
 C        -3.287787        -1.109734         1.660366
 C        -4.081791        -1.070113         2.905258
 O        -2.667680        -2.150196         1.353976
 H         1.782909         0.370709         0.980000
 H         1.799071        -1.379826         0.994747
 H         2.357057        -0.489874        -0.449665
 H        -2.936904        -1.004469        -0.829772
 H        -1.885812         1.893293        -0.937132
 H        -2.480294         1.083021        -2.292449
 H        -3.674159         1.505268        -1.137069
 H        -3.417620        -0.642793         3.630787
 H        -4.962218        -0.425884         3.030290
 H        -4.399667        -2.111701         3.136079
