19
Iteration:  3363
 C         1.752623        -0.952299        -0.031499
 C         0.427850        -0.373506        -0.013448
 C        -0.796194        -0.206954        -0.077260
 C        -2.261802        -0.126478        -0.248508
 C        -2.644741         0.914411        -1.206503
 O        -3.073528         0.220072         1.049477
 C        -3.341714        -0.963718         1.637247
 C        -4.445151        -0.703630         2.654804
 O        -2.686869        -2.014153         1.569736
 H         1.564817        -2.048330        -0.261652
 H         2.575750        -0.556462        -0.701644
 H         2.218127        -0.581853         0.845514
 H        -2.466213        -1.218489        -0.252689
 H        -3.682254         0.998515        -1.279113
 H        -2.218189         1.863090        -0.945825
 H        -2.251147         0.698111        -2.226935
 H        -5.000503         0.157971         2.251270
 H        -5.032465        -1.591360         2.848477
 H        -3.910037        -0.389690         3.577336
