19
Iteration:   384
 C         1.637622        -0.176124         0.277537
 C         0.157862         0.119034         0.114738
 C        -1.037772         0.107391        -0.093913
 C        -2.451679        -0.063755        -0.407527
 C        -3.166295         1.014784        -1.165922
 O        -3.167700        -0.078846         0.894653
 C        -2.924631        -1.332491         1.610904
 C        -3.941179        -1.378076         2.762531
 O        -2.218868        -2.275768         1.360453
 H         2.243703         0.768968         0.627455
 H         1.674798        -0.987435         0.970065
 H         1.969856        -0.521525        -0.663916
 H        -2.642725        -1.055966        -1.018896
 H        -3.096481         1.828571        -0.499330
 H        -2.535551         1.382722        -2.017444
 H        -4.128514         0.678710        -1.467175
 H        -3.457165        -1.627174         3.770395
 H        -4.516612        -0.431353         2.804385
 H        -4.679008        -2.182730         2.558792
