19
Iteration:  2172charge 0 multiplicity 1
 C         1.672356        -0.492421         0.367944
 C         0.264790        -0.408812        -0.153024
 C        -0.940670        -0.271463        -0.357370
 C        -2.376893        -0.130187        -0.401987
 C        -2.604885         1.192685        -1.219811
 O        -3.159878         0.148180         1.008725
 C        -3.279002        -1.136344         1.625052
 C        -4.070833        -1.037905         2.923038
 O        -2.646090        -2.128847         1.377362
 H         1.839347         0.341896         1.137684
 H         1.826364        -1.411400         0.922537
 H         2.598139        -0.482303        -0.375902
 H        -2.807076        -0.927600        -0.929144
 H        -1.970557         2.052361        -0.768715
 H        -2.382588         0.919727        -2.315183
 H        -3.588735         1.558038        -0.989546
 H        -3.460869        -0.584184         3.783273
 H        -5.073172        -0.596971         3.146588
 H        -4.149686        -2.098323         3.121312
