19
Iteration:   895
 C         1.940794         0.865285        -0.240965
 C         0.605763         0.468200        -0.129633
 C        -0.514869         0.031137         0.051092
 C        -1.843488        -0.555465         0.003416
 C        -2.755384         0.264423        -0.937077
 O        -2.355948        -0.774539         1.360019
 C        -3.598698        -1.319023         1.573861
 C        -4.128038        -1.191093         2.987936
 O        -4.282724        -1.886607         0.717441
 H         2.169257         1.899351        -0.004228
 H         2.597705         0.242071         0.535921
 H         2.348406         0.706092        -1.204430
 H        -1.786675        -1.600824        -0.402283
 H        -2.474600         1.340306        -0.934353
 H        -2.593171        -0.009411        -1.931586
 H        -3.830529         0.136815        -0.667314
 H        -4.157343        -0.161144         3.280898
 H        -5.177083        -1.420738         3.035334
 H        -3.454218        -1.663572         3.670480
