19
Iteration:  3531charge 0 multiplicity 1
 C         1.758426        -0.079765         0.302688
 C         0.474881        -0.417888        -0.183256
 C        -0.675450        -0.679396        -0.244517
 C        -2.062380        -0.520141        -0.315391
 C        -2.714667         0.632244        -1.185824
 O        -2.453106        -0.185305         1.066760
 C        -3.470149        -0.911700         1.573858
 C        -3.682260        -0.484182         3.056116
 O        -4.124153        -1.780079         1.112509
 H         2.672517        -0.576750        -0.116793
 H         2.038979         1.071625         0.394981
 H         1.657302        -0.370687         1.413557
 H        -2.765088        -1.298097        -0.614967
 H        -3.804322         0.717603        -0.936099
 H        -2.250830         1.573098        -0.818575
 H        -2.505125         0.679551        -2.223892
 H        -4.567307         0.166582         3.109849
 H        -3.966810        -1.383401         3.610809
 H        -2.916789         0.050918         3.577410
