19
Iteration:  2211
 C         1.648584        -0.572586         0.261559
 C         0.153177        -0.488841         0.083799
 C        -1.041218        -0.299499        -0.044014
 C        -2.387670        -0.025236        -0.438001
 C        -2.680344         1.301213        -1.073205
 O        -3.264513        -0.066606         0.759551
 C        -3.098331        -1.123489         1.568505
 C        -3.965175        -0.831661         2.865668
 O        -2.491782        -2.147463         1.365097
 H         1.993733        -0.070101         1.204278
 H         1.884458        -1.664500         0.375526
 H         2.183838        -0.220336        -0.560277
 H        -2.805564        -0.921559        -1.008703
 H        -2.341191         2.160283        -0.455148
 H        -2.204670         1.468208        -1.978752
 H        -3.729888         1.255170        -1.352303
 H        -3.750201         0.127491         3.309010
 H        -5.027924        -0.856906         2.605177
 H        -3.732843        -1.713282         3.495335
