19
Iteration:  2846
 C         2.155179         0.239903        -0.354698
 C         0.717669        -0.099611        -0.037195
 C        -0.463857        -0.347828         0.093225
 C        -1.877295        -0.713206        -0.033119
 C        -2.596806         0.252000        -1.043639
 O        -2.403359        -0.705748         1.384972
 C        -3.730015        -0.954817         1.630063
 C        -4.162107        -0.774133         3.050327
 O        -4.549128        -1.145904         0.735507
 H         2.451134         1.170018        -0.146163
 H         2.914623        -0.392688         0.257613
 H         2.461736        -0.087007        -1.400888
 H        -1.827723        -1.796450        -0.250170
 H        -3.593652        -0.015301        -1.318467
 H        -2.737819         1.250941        -0.592027
 H        -1.827781         0.247658        -1.881889
 H        -4.761994        -1.695164         3.108618
 H        -3.517871        -0.545759         3.863432
 H        -4.949615        -0.063456         3.099222
