19
Iteration:  3355charge 0 multiplicity 1
 C         1.735837        -0.972429         0.010089
 C         0.399959        -0.365684        -0.074352
 C        -0.788600        -0.220109        -0.093041
 C        -2.185887        -0.064978        -0.202943
 C        -2.706791         0.928874        -1.205750
 O        -3.086466         0.137780         0.986485
 C        -3.278969        -0.983362         1.706016
 C        -4.466665        -0.672341         2.628413
 O        -2.649368        -1.993963         1.592780
 H         1.762840        -2.034742        -0.024257
 H         2.278167        -0.553662        -0.864172
 H         2.247159        -0.863976         0.984998
 H        -2.641423        -1.020508        -0.580778
 H        -3.743529         1.206420        -1.214345
 H        -2.225072         1.921041        -0.782446
 H        -2.246562         0.725150        -2.229957
 H        -5.111057         0.113459         2.260369
 H        -5.094577        -1.537457         2.695353
 H        -4.032619        -0.378970         3.605385
