19
Iteration:  2302charge 0 multiplicity 1
 C         1.568983        -0.741143         0.342553
 C         0.249244        -0.421949        -0.062365
 C        -0.925736        -0.069569        -0.077945
 C        -2.402468        -0.045792        -0.366529
 C        -2.719374         1.380307        -1.100767
 O        -3.328983        -0.192918         0.711471
 C        -3.131666        -1.155320         1.581872
 C        -3.952690        -0.831955         2.923002
 O        -2.443895        -2.132220         1.349625
 H         1.498135        -1.020829         1.471883
 H         1.930311        -1.618093        -0.180156
 H         2.199948         0.074357         0.259717
 H        -2.590839        -0.913813        -1.087939
 H        -2.490779         2.071498        -0.295815
 H        -2.127492         1.665603        -2.039074
 H        -3.773446         1.254739        -1.302931
 H        -4.411818         0.193111         2.801999
 H        -4.798960        -1.542484         2.992230
 H        -3.384519        -0.679774         3.838203
