19
Iteration:  1492
 C         1.798207         0.168730         0.023297
 C         0.357394        -0.031118         0.033453
 C        -0.789434        -0.413384        -0.011111
 C        -2.216416        -0.280801        -0.249471
 C        -2.691573         0.863051        -1.049541
 O        -2.893543        -0.032004         1.073593
 C        -3.323972        -1.221125         1.607562
 C        -3.881335        -1.011330         2.993446
 O        -3.381105        -2.316600         0.961200
 H         1.916270         1.144971         0.252274
 H         2.397813        -0.437760         0.732762
 H         2.315004         0.018513        -0.991654
 H        -2.746698        -1.154276        -0.716870
 H        -2.668598         1.788890        -0.544399
 H        -2.187167         0.901436        -2.039158
 H        -3.704209         0.749931        -1.261686
 H        -3.108380        -0.735964         3.750349
 H        -4.458520        -0.084790         3.005886
 H        -4.491564        -1.850860         3.403414
