19
Iteration:  1057charge 0 multiplicity 1
 C         1.885458         0.388075         0.074848
 C         0.425193         0.142598         0.223673
 C        -0.747269         0.014932        -0.146933
 C        -2.184688        -0.239664        -0.316453
 C        -2.891371         0.835332        -1.155088
 O        -2.757327        -0.302567         1.032281
 C        -3.398288        -1.383762         1.597019
 C        -3.878567        -1.081007         3.030102
 O        -3.517924        -2.470513         1.040918
 H         2.449506        -0.204635         0.936487
 H         2.093571        -0.232985        -0.757980
 H         2.179540         1.340368        -0.076716
 H        -2.241686        -1.212372        -0.664744
 H        -2.228786         1.713479        -1.131298
 H        -2.870348         0.560222        -2.125837
 H        -3.839587         1.176141        -0.727626
 H        -4.298829        -2.066027         3.339246
 H        -2.937690        -0.957626         3.631092
 H        -4.526904        -0.217813         3.040874
