19
Iteration:  4825charge 0 multiplicity 1
 C         2.053073        -0.677412        -0.559962
 C         0.559599        -0.578376        -0.281762
 C        -0.649480        -0.479411        -0.147754
 C        -2.091062        -0.246838        -0.030325
 C        -2.407683         0.931692        -1.122522
 O        -2.578406         0.009096         1.459028
 C        -3.629885        -0.862264         1.811114
 C        -4.171906        -0.701720         3.231202
 O        -4.060754        -1.706753         0.963213
 H         2.168711         0.124358        -1.311925
 H         2.627470        -0.381736         0.358343
 H         2.360987        -1.720950        -0.844910
 H        -2.556826        -1.200273        -0.320135
 H        -3.371796         1.276589        -0.887567
 H        -1.765123         1.761172        -1.023802
 H        -2.383075         0.445055        -2.122031
 H        -3.927648        -1.596989         3.873866
 H        -3.710984         0.167936         3.769416
 H        -5.274800        -0.665332         3.283717
