19
Iteration:  1115charge 0 multiplicity 1
 C         1.763920         0.141679         0.338734
 C         0.371994         0.003404        -0.091131
 C        -0.837359        -0.199069        -0.181675
 C        -2.283419        -0.172111        -0.331519
 C        -2.922135         0.874896        -1.147159
 O        -3.004024        -0.039906         1.050522
 C        -3.278415        -1.289841         1.604514
 C        -3.823141        -1.156454         3.002156
 O        -3.047008        -2.344175         1.018615
 H         2.062022        -0.668628         0.940366
 H         2.634577         0.307134        -0.477454
 H         1.932994         0.984095         1.002706
 H        -2.581295        -1.183788        -0.653690
 H        -2.516844         1.817079        -0.874662
 H        -3.038416         0.672089        -2.300720
 H        -3.941605         0.872783        -0.835781
 H        -3.231170        -1.895475         3.616532
 H        -3.571684        -0.103137         3.272839
 H        -4.919013        -1.429939         3.187320
