19
Iteration:  1230
 C         1.632093        -0.361797         0.405072
 C         0.197197        -0.148072         0.069615
 C        -1.018187        -0.012816        -0.041571
 C        -2.438702        -0.003607        -0.422127
 C        -2.972278         1.243749        -1.205837
 O        -3.421066        -0.277017         0.647691
 C        -3.063248        -1.265028         1.554870
 C        -3.684502        -1.064426         2.974590
 O        -2.361915        -2.246442         1.376821
 H         2.067161        -1.190013        -0.242561
 H         2.155284         0.522858         0.210829
 H         1.698906        -0.578940         1.549527
 H        -2.522133        -0.774601        -1.237485
 H        -2.780216         2.187026        -0.545126
 H        -2.374588         1.335679        -2.085224
 H        -4.078272         1.072744        -1.516438
 H        -3.758831        -0.018534         3.203388
 H        -4.680669        -1.492915         2.972851
 H        -3.111527        -1.689094         3.599527
