19
Iteration:  3183charge 0 multiplicity 1
 C         1.521243        -0.845825         0.410408
 C         0.116239        -0.617858         0.111178
 C        -1.070718        -0.434180        -0.166240
 C        -2.454537        -0.098674        -0.609719
 C        -2.502271         1.366483        -1.081985
 O        -3.268577        -0.068531         0.663273
 C        -3.090604        -1.025147         1.612018
 C        -4.091416        -0.642580         2.790714
 O        -2.332452        -1.944106         1.587353
 H         1.720859        -1.569066         1.218183
 H         1.891688        -1.290093        -0.511465
 H         2.135619         0.093113         0.651643
 H        -2.832911        -0.930247        -1.243566
 H        -3.568575         1.571899        -1.285804
 H        -1.971123         1.995100        -0.431096
 H        -2.059597         1.534557        -2.034330
 H        -3.776589         0.347445         3.175637
 H        -5.126382        -0.829776         2.447419
 H        -4.011673        -1.485339         3.529819
