19
Iteration:  1113charge 0 multiplicity 1
 C         1.787974         0.154566         0.324960
 C         0.369943         0.019299        -0.090214
 C        -0.837593        -0.205228        -0.160218
 C        -2.295605        -0.182382        -0.329557
 C        -2.929911         0.886104        -1.160521
 O        -2.993057        -0.056659         1.052372
 C        -3.287067        -1.289916         1.621720
 C        -3.827764        -1.147516         3.012901
 O        -3.058310        -2.351521         0.999624
 H         2.089361        -0.716929         1.013735
 H         2.605881         0.298001        -0.417453
 H         1.883948         0.967980         0.920361
 H        -2.551344        -1.158032        -0.610707
 H        -2.456282         1.798424        -0.936086
 H        -3.044713         0.669492        -2.219687
 H        -3.923985         0.860545        -0.815415
 H        -3.205587        -1.907922         3.594390
 H        -3.519358        -0.093712         3.227831
 H        -4.906372        -1.349460         3.092887
