19
Iteration:   517
 C         1.590578         0.512125         0.084612
 C         0.317792        -0.062195         0.039319
 C        -0.873903        -0.224912        -0.010406
 C        -2.278080        -0.198761        -0.438745
 C        -2.718147         1.022234        -1.253514
 O        -3.058401        -0.135550         1.099781
 C        -3.237015        -1.371924         1.615498
 C        -3.847968        -1.321792         3.052166
 O        -2.951952        -2.475469         1.155254
 H         2.204706         0.394242         1.148159
 H         2.225122         0.155834        -0.687498
 H         1.561597         1.507056        -0.057067
 H        -2.679312        -1.075406        -1.009989
 H        -2.827660         1.978474        -0.626238
 H        -2.063970         1.124268        -2.094236
 H        -3.774047         0.911794        -1.567981
 H        -3.661944        -0.215784         3.368771
 H        -4.972876        -1.544242         2.865994
 H        -3.372706        -2.076208         3.837768
