19
Iteration:  1577charge 0 multiplicity 1
 C         1.914760         0.351131         0.055567
 C         0.533588         0.231013        -0.189529
 C        -0.589049        -0.280138        -0.227840
 C        -2.026777        -0.444112        -0.212778
 C        -2.812296         0.752139        -0.937957
 O        -2.518282        -0.409665         1.211860
 C        -3.523723        -1.301015         1.581038
 C        -4.001270        -0.836803         2.998221
 O        -3.952060        -2.221246         0.955529
 H         2.196878         0.738562         1.102304
 H         2.288322        -0.758131         0.047807
 H         2.362676         0.879594        -0.736368
 H        -2.285609        -1.436899        -0.577066
 H        -2.430977         1.625409        -0.402358
 H        -2.514493         0.837009        -2.007023
 H        -3.856515         0.473758        -0.781540
 H        -3.612790         0.184884         3.246118
 H        -5.082073        -0.981852         3.115796
 H        -3.583155        -1.485971         3.825911
