19
Iteration:  4733charge 0 multiplicity 1
 C         2.057936        -0.645956        -0.455236
 C         0.659440        -0.390317        -0.018139
 C        -0.534706        -0.257181        -0.150600
 C        -1.972546        -0.473124        -0.308461
 C        -2.761334         0.608018        -0.933824
 O        -2.381766        -0.527414         1.329837
 C        -3.576525        -0.771117         1.725979
 C        -3.887417        -0.573946         3.157202
 O        -4.506031        -1.209871         0.972031
 H         2.465971         0.437148        -0.609514
 H         2.732814        -0.967601         0.414876
 H         2.169793        -1.381313        -1.279527
 H        -2.128863        -1.578490        -0.757732
 H        -3.845277         0.253420        -1.119365
 H        -2.897748         1.461954        -0.178108
 H        -2.358967         1.027365        -1.808695
 H        -3.073212        -0.950069         3.779809
 H        -4.033377         0.446573         3.488963
 H        -4.756765        -1.229322         3.361662
