19
Iteration:   985
 C         1.919468         0.632561        -0.067764
 C         0.544442         0.180857        -0.119525
 C        -0.644030        -0.114011        -0.015133
 C        -2.081940        -0.394384        -0.152124
 C        -2.841646         0.536380        -1.143975
 O        -2.569610        -0.298656         1.357035
 C        -3.416104        -1.327930         1.606641
 C        -4.080197        -1.225545         3.070851
 O        -3.798485        -2.142903         0.814035
 H         2.182768         0.983173         0.869645
 H         2.681546        -0.239373        -0.187354
 H         2.141547         1.502280        -0.855106
 H        -2.256131        -1.530914        -0.347070
 H        -3.400405         1.292331        -0.558194
 H        -2.033870         1.080325        -1.812427
 H        -3.664179        -0.045272        -1.558770
 H        -5.170492        -1.147306         2.910185
 H        -3.906962        -2.222691         3.449061
 H        -3.579665        -0.405864         3.527583
