19
Iteration:  3095charge 0 multiplicity 1
 C         1.656856        -0.802539         0.378478
 C         0.361449        -0.358477         0.078548
 C        -0.791907        -0.126220        -0.197615
 C        -2.200860        -0.093227        -0.366538
 C        -2.848787         0.930072        -1.329633
 O        -2.862700         0.129040         0.982960
 C        -3.306232        -1.043169         1.640094
 C        -3.960000        -0.687037         2.951420
 O        -3.085939        -2.149161         1.186477
 H         1.805892        -1.003376         1.429804
 H         1.911895        -1.679343        -0.239116
 H         2.393480         0.102279         0.226615
 H        -2.609542        -1.137707        -0.657252
 H        -3.994003         0.936321        -1.447347
 H        -2.530094         1.946572        -1.122408
 H        -2.333714         0.624785        -2.291919
 H        -3.358333         0.039488         3.601157
 H        -4.872347        -0.081142         2.696496
 H        -4.244654        -1.587821         3.556020
