19
Iteration:  3146
 C         1.564147        -0.852434         0.462758
 C         0.236842        -0.491856        -0.052323
 C        -0.917046        -0.237303        -0.260119
 C        -2.280494        -0.067147        -0.470459
 C        -2.709071         1.234089        -1.178094
 O        -3.064245        -0.034064         0.783706
 C        -3.196014        -1.108180         1.696410
 C        -4.101021        -0.588155         2.781072
 O        -2.615452        -2.123987         1.500767
 H         1.396828        -1.396909         1.383354
 H         2.058275        -1.594460        -0.219113
 H         2.307680        -0.041612         0.559410
 H        -2.802419        -0.769336        -1.059567
 H        -3.705870         1.114183        -1.318088
 H        -2.754357         2.111040        -0.510008
 H        -2.114055         1.382837        -2.119638
 H        -3.706717         0.281847         3.313167
 H        -5.052865        -0.198259         2.490678
 H        -3.995097        -1.369374         3.497245
