19
Iteration:   305
 C         1.459386        -0.144454         0.328328
 C         0.036642        -0.040350         0.186797
 C        -1.101622         0.081683        -0.168624
 C        -2.489326        -0.042307        -0.441558
 C        -2.987701         1.222448        -1.231113
 O        -3.245768        -0.239772         0.817204
 C        -2.943763        -1.395440         1.608815
 C        -3.831430        -1.406037         2.846690
 O        -2.061404        -2.176991         1.387838
 H         1.845301         0.653627        -0.210301
 H         1.646603         0.194099         1.382847
 H         2.126257        -1.054241         0.150124
 H        -2.674588        -0.945674        -1.078460
 H        -2.800137         2.223808        -0.804719
 H        -2.642388         1.153654        -2.262693
 H        -4.136205         1.115112        -1.289482
 H        -3.814951        -2.382137         3.307221
 H        -3.534099        -0.721007         3.641447
 H        -4.873927        -1.216584         2.653782
