19
Iteration:  3848charge 0 multiplicity 1
 C         2.098763        -0.242636        -0.368199
 C         0.684186        -0.271956        -0.333494
 C        -0.500223        -0.326957        -0.044984
 C        -1.888089        -0.459479         0.021648
 C        -2.694966         0.645566        -0.733080
 O        -2.385864        -0.550803         1.409209
 C        -3.616411        -0.957734         1.631168
 C        -4.301132        -0.504536         2.969859
 O        -4.318657        -1.595489         0.804263
 H         2.527279        -0.751606        -1.189774
 H         2.490083         0.763551        -0.530919
 H         2.639439        -0.632175         0.449318
 H        -2.081487        -1.458313        -0.493111
 H        -3.830660         0.412043        -0.829901
 H        -2.550604         1.552736        -0.156167
 H        -2.119172         0.669945        -1.708226
 H        -5.314278        -0.905726         2.998927
 H        -3.684619        -0.819030         3.818221
 H        -4.295206         0.582255         2.835735
