19
Iteration:   799charge 0 multiplicity 1
 C         1.701727         1.117794        -0.167979
 C         0.598673         0.144090        -0.040390
 C        -0.492849        -0.375291        -0.065084
 C        -1.962403        -0.628355        -0.066761
 C        -2.580518         0.383883        -1.000685
 O        -2.390793        -0.551576         1.316608
 C        -3.600310        -1.279717         1.639812
 C        -3.969949        -1.257096         3.066049
 O        -4.221455        -1.835754         0.702708
 H         1.491003         1.807149        -0.915276
 H         1.800013         1.642636         0.787152
 H         2.730227         0.589170        -0.459572
 H        -2.264015        -1.678627        -0.388033
 H        -2.997131         1.377163        -0.615836
 H        -1.779871         0.626394        -1.710345
 H        -3.507297        -0.031671        -1.508247
 H        -3.191564        -1.552061         3.777713
 H        -4.193327        -0.218796         3.380006
 H        -4.726192        -1.979369         3.282533
