19
Iteration:   303charge 0 multiplicity 1
 C         1.441381        -0.133465         0.330803
 C         0.055516        -0.036301         0.199959
 C        -1.091462         0.081659        -0.181367
 C        -2.511582        -0.054028        -0.455690
 C        -2.983623         1.225588        -1.221353
 O        -3.245228        -0.253363         0.827953
 C        -2.957674        -1.400857         1.611935
 C        -3.826433        -1.389775         2.828234
 O        -2.060031        -2.180756         1.386217
 H         1.895732         0.621560        -0.218275
 H         1.707865         0.238007         1.375336
 H         2.160764        -1.096841         0.146920
 H        -2.666487        -0.984112        -1.006545
 H        -2.730519         2.277408        -0.754581
 H        -2.718845         1.173128        -2.288931
 H        -4.171586         1.139673        -1.320501
 H        -3.822893        -2.344085         3.340392
 H        -3.477263        -0.762138         3.658371
 H        -4.873892        -1.172320         2.613062
