19
Iteration:  3132charge 0 multiplicity 1
 C         1.614674        -0.883303         0.447468
 C         0.330609        -0.446963        -0.043648
 C        -0.826608        -0.164557        -0.262351
 C        -2.329286        -0.077483        -0.518622
 C        -2.798950         1.205875        -1.250996
 O        -3.005095         0.038299         0.841562
 C        -3.200087        -1.063082         1.615596
 C        -4.066989        -0.671724         2.899354
 O        -2.780126        -2.161076         1.513702
 H         1.430007        -1.274776         1.519885
 H         2.150731        -1.645139        -0.121388
 H         2.220580        -0.039214         0.517197
 H        -2.500964        -1.120060        -0.877989
 H        -3.897118         1.164043        -1.650073
 H        -2.440353         2.046090        -0.584911
 H        -2.223320         1.407573        -2.159987
 H        -3.536723         0.156705         3.299684
 H        -5.049123        -0.372406         2.476417
 H        -4.348976        -1.478948         3.576476
