19
Iteration:   919
 C         1.972672         0.781629        -0.228875
 C         0.572282         0.412778        -0.132634
 C        -0.542404         0.020164         0.171660
 C        -1.910160        -0.530317         0.067651
 C        -2.851039         0.259710        -0.897051
 O        -2.453770        -0.618993         1.373815
 C        -3.559335        -1.378153         1.522425
 C        -3.957232        -1.103942         2.932202
 O        -4.212911        -1.945929         0.616618
 H         2.220420         1.665130         0.237002
 H         2.635272         0.026708         0.336898
 H         2.452322         0.915866        -1.297020
 H        -1.915746        -1.623547        -0.373696
 H        -2.964911         1.356670        -0.684865
 H        -2.455235         0.285323        -1.982636
 H        -3.821536        -0.286084        -0.846688
 H        -4.413908        -0.152252         3.175203
 H        -4.804818        -1.722240         3.239147
 H        -3.068390        -1.313397         3.446165
