19
Iteration:  4167
 C         1.128940        -1.510379         0.438696
 C        -0.133550        -0.813540         0.073204
 C        -0.952564        -0.011421        -0.286733
 C        -2.357535         0.214382        -0.517899
 C        -2.880900         1.508032        -1.218137
 O        -2.970376         0.240128         0.985181
 C        -2.858789        -0.969162         1.663865
 C        -3.704449        -0.875043         2.943590
 O        -2.386182        -1.963132         1.173182
 H         0.831644        -2.568910         0.299823
 H         2.036553        -1.280468        -0.221341
 H         1.406242        -1.503585         1.602652
 H        -2.716573        -0.844985        -0.867417
 H        -3.937353         1.440331        -1.450395
 H        -2.857480         2.235050        -0.350795
 H        -2.355355         1.805510        -2.082351
 H        -4.307145         0.005371         2.757366
 H        -4.244520        -1.824048         3.043127
 H        -3.109550        -0.725282         3.890299
