19
Iteration:    25charge 0 multiplicity 1
 C         1.874651         0.818682         0.167317
 C         0.539108         0.245691        -0.053523
 C        -0.676031         0.156961        -0.186834
 C        -2.082922        -0.267466        -0.193822
 C        -3.084309         0.609903        -0.966742
 O        -2.488042        -0.415627         1.298147
 C        -3.369280        -1.453783         1.524427
 C        -3.906439        -1.454712         2.977801
 O        -3.750117        -2.338022         0.758026
 H         2.224611         0.705561         1.128775
 H         2.661293         0.331890        -0.480768
 H         1.858244         2.032687        -0.171646
 H        -2.246333        -1.280838        -0.567822
 H        -3.568063         1.454889        -0.498085
 H        -2.475689         0.866778        -1.976839
 H        -3.985175         0.010942        -1.275346
 H        -4.741901        -2.113987         2.934546
 H        -3.256062        -1.684760         3.825845
 H        -4.285560        -0.479907         3.274398
