19
Iteration:  2961
 C         1.935392         0.073744         0.102509
 C         0.586692        -0.291106         0.031372
 C        -0.570994        -0.563192        -0.196655
 C        -2.033460        -0.561739        -0.247726
 C        -2.479342         0.653064        -1.084807
 O        -2.572587        -0.314590         1.148699
 C        -3.646868        -0.942489         1.551078
 C        -3.822809        -0.687053         3.074223
 O        -4.348882        -1.734685         0.945606
 H         2.097297         0.603526         0.911925
 H         2.668841        -0.708354         0.154478
 H         2.104565         0.421873        -0.907566
 H        -2.455574        -1.497437        -0.658576
 H        -3.531139         0.715994        -1.185571
 H        -2.334072         1.622487        -0.509635
 H        -2.032162         0.814264        -2.091155
 H        -3.008288        -1.104701         3.700497
 H        -3.700939         0.434920         3.109572
 H        -4.806179        -1.033270         3.524145
