19
Iteration:   209charge 0 multiplicity 1
 C         1.490611         0.259257         0.375091
 C         0.102649        -0.024855         0.161791
 C        -1.038382        -0.064660        -0.230021
 C        -2.434507        -0.086582        -0.480789
 C        -2.877876         1.203829        -1.150920
 O        -3.148113        -0.252278         0.821777
 C        -3.027430        -1.452434         1.581258
 C        -3.716333        -1.293014         3.044298
 O        -2.485306        -2.484448         1.219534
 H         2.147454        -0.128150        -0.640009
 H         1.609695         1.369086         0.446940
 H         1.869592        -0.146781         1.252452
 H        -2.847316        -0.832825        -1.190615
 H        -3.076723         1.959952        -0.484170
 H        -2.178317         1.551695        -1.867671
 H        -3.740407         1.022225        -1.692523
 H        -4.489031        -2.037364         3.255849
 H        -2.956640        -1.471050         3.829117
 H        -4.266451        -0.356881         3.137264
