19
Iteration:  2404
 C         1.619895        -0.550561         0.441172
 C         0.286908        -0.395357        -0.185729
 C        -0.916333        -0.271187        -0.186982
 C        -2.317113        -0.062983        -0.289605
 C        -2.747882         1.189695        -1.197931
 O        -2.942888         0.076020         1.003356
 C        -3.285613        -1.171916         1.576123
 C        -3.930865        -0.864435         2.899888
 O        -2.856923        -2.205896         1.162530
 H         1.599788        -1.519137         0.904060
 H         2.410393        -0.412945        -0.283532
 H         1.751291         0.247980         1.285904
 H        -2.622739        -0.965937        -0.818107
 H        -2.211507         2.098839        -0.852387
 H        -2.689724         0.968411        -2.280161
 H        -3.808723         1.354479        -0.778927
 H        -4.990742        -1.006428         2.811599
 H        -3.665191        -1.619426         3.664620
 H        -3.565309         0.114664         3.320961
