19
Iteration:  1428charge 0 multiplicity 1
 C         1.790878        -0.223730         0.134354
 C         0.328893        -0.143634        -0.056927
 C        -0.875268         0.106215         0.104119
 C        -2.322707        -0.012266        -0.243543
 C        -2.860008         1.043110        -1.293264
 O        -3.094506        -0.130247         1.005059
 C        -3.261354        -1.369125         1.623642
 C        -3.948460        -0.992622         2.962038
 O        -2.872587        -2.390925         1.158157
 H         2.159655         0.791197        -0.090615
 H         1.918641        -0.392119         1.171564
 H         2.461395        -0.990605        -0.524768
 H        -2.339566        -1.056241        -0.715483
 H        -2.530889         2.040953        -1.075055
 H        -2.375628         0.574357        -2.281028
 H        -3.918217         0.975185        -1.338036
 H        -3.549296        -1.656543         3.712570
 H        -3.643097         0.003587         3.237058
 H        -5.023882        -1.189529         2.852985
