19
Iteration:  3672
 C         2.044474         0.112472        -0.167987
 C         0.674526        -0.137453        -0.072821
 C        -0.510051        -0.396650         0.025856
 C        -1.949108        -0.760684        -0.094649
 C        -2.596806         0.024223        -1.330550
 O        -2.399054        -0.572981         1.342082
 C        -3.695212        -0.805648         1.680627
 C        -3.897929        -0.831240         3.207338
 O        -4.602252        -0.887260         0.808561
 H         2.300816        -0.298874        -1.144876
 H         2.368507         1.179846        -0.298284
 H         2.639637        -0.389626         0.613054
 H        -1.954779        -1.911510        -0.117838
 H        -3.537208        -0.660083        -1.507331
 H        -2.949643         1.058562        -0.990803
 H        -2.046276         0.099006        -2.253989
 H        -4.849138        -0.313995         3.468649
 H        -3.868912        -1.876277         3.514694
 H        -3.040285        -0.293161         3.658201
