19
Iteration:  4986charge 0 multiplicity 1
 C         1.688972        -1.070000        -0.137028
 C         0.251099        -0.759089        -0.099512
 C        -0.885495        -0.355439        -0.200010
 C        -2.294333        -0.014782        -0.237792
 C        -2.650341         1.290897        -0.902446
 O        -2.766363         0.213054         1.098164
 C        -3.182234        -0.971179         1.695450
 C        -3.939513        -0.640990         3.000045
 O        -3.285529        -2.014590         1.119124
 H         1.972035        -1.456831        -1.128124
 H         2.441480        -0.276748         0.045921
 H         1.966899        -1.804012         0.579834
 H        -2.731912        -0.900476        -0.722679
 H        -3.708551         1.471787        -0.597588
 H        -2.128762         2.169934        -0.488112
 H        -2.550024         1.303685        -2.070761
 H        -4.979279        -0.479610         2.684321
 H        -3.830691        -1.514044         3.626029
 H        -3.568760         0.227972         3.493209
