19
Iteration:   230charge 0 multiplicity 1
 C         1.558331         0.185260         0.466202
 C         0.203028        -0.035569        -0.017120
 C        -0.990946        -0.033841        -0.298254
 C        -2.463956        -0.132128        -0.428986
 C        -2.989693         1.216658        -1.067998
 O        -3.300015        -0.352677         0.841091
 C        -3.063878        -1.429297         1.583091
 C        -3.693595        -1.230372         2.873470
 O        -2.395689        -2.381772         1.296719
 H         2.327774         0.099388        -0.404425
 H         1.665466         1.214393         0.845534
 H         1.871944        -0.438070         1.181340
 H        -2.729025        -1.012736        -1.062831
 H        -2.855383         1.897828        -0.292750
 H        -2.339051         1.567290        -1.793968
 H        -3.949395         1.298991        -1.483520
 H        -4.333503        -2.056465         3.151402
 H        -2.983234        -1.297441         3.692859
 H        -4.336690        -0.369526         2.948915
