19
Iteration:  1961
 C         1.858812         0.140756         0.090660
 C         0.538354        -0.239562        -0.123140
 C        -0.687944        -0.222641        -0.009957
 C        -2.062338        -0.326968        -0.155816
 C        -2.660146         0.577384        -1.217069
 O        -2.789113        -0.050433         1.160063
 C        -3.461710        -1.172772         1.599067
 C        -3.916686        -0.858374         3.056460
 O        -3.784687        -2.138036         0.967010
 H         2.187148         0.696143        -0.926966
 H         2.002131         0.894653         0.951110
 H         2.509131        -0.671014         0.282987
 H        -2.324813        -1.306487        -0.488008
 H        -2.225972         1.585959        -1.021889
 H        -2.483635         0.306621        -2.273920
 H        -3.746303         0.836769        -1.029682
 H        -4.826195        -0.299439         2.981038
 H        -4.203292        -1.867230         3.404696
 H        -3.111534        -0.278169         3.526905
