19
Iteration:  1450charge 0 multiplicity 1
 C         1.813194        -0.076277         0.117275
 C         0.343508        -0.041330        -0.006203
 C        -0.865438        -0.037612        -0.079022
 C        -2.299208        -0.068465        -0.274353
 C        -2.679537         0.975696        -1.298608
 O        -3.085753        -0.015260         1.033587
 C        -3.281769        -1.282017         1.685209
 C        -3.941201        -1.149967         3.012523
 O        -3.088161        -2.392106         1.189624
 H         2.288260         0.875089        -0.090803
 H         2.137172        -0.565509         0.992674
 H         2.114001        -0.763219        -0.835624
 H        -2.493840        -1.137187        -0.638624
 H        -2.342288         1.927100        -0.960395
 H        -2.106782         0.570458        -2.249013
 H        -3.730110         0.968519        -1.442707
 H        -3.349133        -1.621442         3.793778
 H        -4.064969        -0.146456         3.370874
 H        -4.841220        -1.765936         2.933686
