19
Iteration:  2082
 C         1.939048        -0.336451         0.217378
 C         0.461949        -0.332275        -0.013853
 C        -0.767031        -0.041973        -0.115610
 C        -2.219237        -0.102115        -0.466149
 C        -2.878760         1.006731        -1.189140
 O        -2.991192        -0.030487         0.928229
 C        -3.324896        -1.176153         1.644107
 C        -4.003025        -0.868549         2.997291
 O        -3.190905        -2.325238         1.301950
 H         2.520978         0.694833         0.091547
 H         1.971152        -0.758644         1.265558
 H         2.390393        -1.030927        -0.405730
 H        -2.554743        -1.049145        -0.808925
 H        -2.980630         1.926508        -0.462820
 H        -2.349503         1.265775        -2.055789
 H        -3.950507         0.833622        -1.371039
 H        -4.157445        -1.785462         3.545480
 H        -3.540709         0.049076         3.369989
 H        -5.020036        -0.588502         2.581584
