19
Iteration:  3852charge 0 multiplicity 1
 C         2.063206        -0.280147        -0.375927
 C         0.675174        -0.249954        -0.315861
 C        -0.510699        -0.321904        -0.078717
 C        -1.904859        -0.391317        -0.013480
 C        -2.685998         0.641603        -0.751905
 O        -2.360175        -0.550624         1.430414
 C        -3.622988        -0.986025         1.621242
 C        -4.304645        -0.521314         2.946567
 O        -4.294218        -1.590504         0.840939
 H         2.629076        -0.832997        -1.155928
 H         2.529229         0.722890        -0.428947
 H         2.550373        -0.676987         0.598202
 H        -1.997565        -1.449666        -0.348476
 H        -3.683724         0.417237        -0.777471
 H        -2.567767         1.618020        -0.198724
 H        -2.226804         0.652175        -1.750931
 H        -5.281731        -1.000793         2.960838
 H        -3.737713        -0.771644         3.853184
 H        -4.359136         0.550134         2.846286
