19
Iteration:  2218charge 0 multiplicity 1
 C         1.591361        -0.605223         0.257352
 C         0.173844        -0.465721         0.156678
 C        -1.027295        -0.269728        -0.003204
 C        -2.441467        -0.024718        -0.483602
 C        -2.684966         1.267119        -1.036309
 O        -3.250715        -0.088742         0.780226
 C        -3.146775        -1.142462         1.555619
 C        -3.897420        -0.824577         2.769489
 O        -2.462531        -2.138446         1.379810
 H         2.037834        -0.206578         1.111735
 H         1.946449        -1.640599         0.232963
 H         2.156368        -0.150366        -0.745666
 H        -2.852145        -0.798003        -1.117824
 H        -2.518764         2.018918        -0.315552
 H        -2.001318         1.439856        -1.958628
 H        -3.768054         1.448031        -1.348961
 H        -3.757449         0.248191         2.999757
 H        -5.000837        -0.774386         2.687132
 H        -3.719959        -1.511939         3.626243
