19
Iteration:    78charge 0 multiplicity 1
 C         1.767859         0.486621         0.286558
 C         0.313788         0.516178         0.050767
 C        -0.808792         0.072336        -0.169844
 C        -2.222027        -0.221457        -0.212747
 C        -3.070559         0.715093        -0.975842
 O        -2.700598        -0.353362         1.075961
 C        -3.250991        -1.490552         1.529777
 C        -3.758052        -1.275337         2.907910
 O        -3.326134        -2.473393         0.840595
 H         2.041386        -0.436127         0.818956
 H         2.345462         0.470585        -0.646079
 H         2.126940         1.269001         0.824992
 H        -2.394920        -1.183750        -0.730127
 H        -3.117707         1.698046        -0.601037
 H        -2.728270         0.748686        -2.028649
 H        -4.085100         0.417072        -0.930637
 H        -4.636895        -1.867567         3.083848
 H        -3.001247        -1.623576         3.625705
 H        -3.864854        -0.247562         3.229237
