19
Iteration:  1829charge 0 multiplicity 1
 C         1.986797         0.506262        -0.029454
 C         0.597619         0.202810        -0.088316
 C        -0.535107        -0.301038        -0.234136
 C        -1.907507        -0.728174        -0.142395
 C        -2.869059         0.325409        -0.936641
 O        -2.301334        -0.647030         1.338697
 C        -3.560129        -1.095176         1.566624
 C        -4.077626        -0.737734         3.006472
 O        -4.262536        -1.697641         0.823520
 H         2.528619        -0.383897        -0.562846
 H         2.503077         1.475145        -0.374327
 H         2.295530         0.233608         0.888811
 H        -2.138525        -1.650112        -0.623352
 H        -2.634981         1.225402        -0.456364
 H        -2.577627         0.392311        -2.082843
 H        -3.854224        -0.105428        -0.671248
 H        -3.306127        -0.744886         3.807709
 H        -4.680337         0.184156         3.060281
 H        -4.833906        -1.520424         3.030978
