19
Iteration:  3413charge 0 multiplicity 1
 C         1.905943        -0.656064        -0.068430
 C         0.416128        -0.571738         0.032655
 C        -0.742308        -0.210195         0.098608
 C        -2.235953        -0.119193        -0.221945
 C        -2.513652         0.810361        -1.371248
 O        -3.024910         0.176173         1.026251
 C        -3.415159        -0.984726         1.695535
 C        -4.237306        -0.633127         2.903696
 O        -3.197749        -2.090152         1.343629
 H         2.065963        -1.525793        -0.618147
 H         2.296761         0.097359        -0.701172
 H         2.540126        -0.476425         0.803515
 H        -2.568269        -1.163996        -0.386943
 H        -3.665213         0.720006        -1.702026
 H        -2.325998         1.836933        -1.046714
 H        -1.912146         0.692168        -2.246230
 H        -4.955311         0.153811         2.608075
 H        -4.658471        -1.542903         3.403007
 H        -3.482924        -0.122389         3.480372
