19
Iteration:  3439
 C         1.863224        -0.494798        -0.033423
 C         0.464360        -0.423701         0.019109
 C        -0.751225        -0.368939         0.041356
 C        -2.178993        -0.265569        -0.230385
 C        -2.462891         0.816269        -1.183513
 O        -2.993203         0.031429         0.932718
 C        -3.504649        -0.992793         1.641352
 C        -4.054088        -0.432679         2.976210
 O        -3.428177        -2.144037         1.252082
 H         2.130960        -1.495368        -0.624983
 H         2.435866         0.364155        -0.588950
 H         2.298929        -0.547152         1.035308
 H        -2.528018        -1.290489        -0.583244
 H        -3.533952         0.610448        -1.404643
 H        -2.269116         1.828573        -0.782880
 H        -2.004393         0.747715        -2.222015
 H        -4.879197         0.285641         2.767499
 H        -4.359059        -1.240452         3.641791
 H        -3.163043         0.145943         3.365256
