19
Iteration:  1857
 C         2.027803         0.435992         0.013607
 C         0.682128        -0.052064        -0.114083
 C        -0.570777        -0.074636        -0.114698
 C        -1.951096        -0.548863        -0.070884
 C        -2.971673         0.344819        -0.906371
 O        -2.411852        -0.642529         1.244520
 C        -3.555335        -1.214661         1.570541
 C        -3.886276        -0.597952         2.942309
 O        -4.282980        -1.872697         0.773037
 H         2.741945         0.055133        -0.698757
 H         2.127616         1.481760         0.018408
 H         2.365213         0.030643         1.081792
 H        -1.995978        -1.521826        -0.634130
 H        -2.870690         1.424119        -0.561636
 H        -2.720416         0.316265        -1.934740
 H        -3.915058        -0.105979        -0.746648
 H        -3.075137         0.082470         3.226527
 H        -4.797825        -0.027722         2.734843
 H        -4.145046        -1.354931         3.703138
