19
Iteration:  2278
 C         1.608796        -0.756058         0.257356
 C         0.253329        -0.319445         0.054684
 C        -0.963331        -0.101389         0.037361
 C        -2.405432         0.016768        -0.448273
 C        -2.685001         1.383366        -1.095239
 O        -3.422214        -0.222078         0.559622
 C        -3.197860        -1.159114         1.501411
 C        -3.866386        -0.818791         2.889968
 O        -2.458655        -2.178361         1.561264
 H         1.707741        -0.955821         1.433596
 H         1.548587        -1.758305        -0.243358
 H         2.352881        -0.155595        -0.096225
 H        -2.546695        -0.675051        -1.363500
 H        -2.635157         2.024817        -0.126136
 H        -1.986438         1.798907        -1.768095
 H        -3.619309         1.255182        -1.524764
 H        -3.981674         0.245198         3.216021
 H        -4.725664        -1.456840         3.040559
 H        -3.038569        -1.200995         3.448027
