19
Iteration:  3653
 C         2.119550        -0.022000        -0.074570
 C         0.621801         0.034218        -0.094053
 C        -0.559395        -0.314902        -0.022058
 C        -1.921063        -0.779515        -0.161251
 C        -2.683719        -0.013340        -1.182347
 O        -2.434708        -0.560809         1.212789
 C        -3.699809        -0.718030         1.639618
 C        -3.766340        -0.798242         3.111651
 O        -4.683114        -0.996217         0.916914
 H         2.683123        -0.490305        -0.888812
 H         2.608495         1.033270        -0.013975
 H         2.568213        -0.582073         0.811664
 H        -1.752359        -1.842936        -0.300048
 H        -3.511406        -0.546964        -1.709696
 H        -2.797855         0.952517        -0.946603
 H        -1.992625         0.005908        -1.982183
 H        -4.625701        -0.328005         3.564966
 H        -3.857526        -1.805828         3.427517
 H        -2.900247        -0.448042         3.678324
