19
Iteration:  2386
 C         1.533939        -0.549386         0.469207
 C         0.239784        -0.484258        -0.181462
 C        -0.937495        -0.256827        -0.262700
 C        -2.407124        -0.021459        -0.309531
 C        -2.742704         1.126071        -1.176748
 O        -2.918312         0.138439         1.091899
 C        -3.058257        -1.075380         1.616910
 C        -4.015903        -0.980996         2.868450
 O        -2.780029        -2.168269         1.139628
 H         1.606463        -1.416756         1.152373
 H         2.420524        -0.578378        -0.226113
 H         1.624419         0.346075         1.057808
 H        -2.967827        -0.879596        -0.664349
 H        -2.008665         2.007946        -1.115068
 H        -2.613728         0.699639        -2.131528
 H        -3.656129         1.612658        -1.150443
 H        -5.014006        -0.745332         2.442157
 H        -4.010548        -1.843591         3.519112
 H        -3.630678        -0.154024         3.439122
