19
Iteration:  1836
 C         2.031379         0.462218         0.000851
 C         0.591642         0.142242        -0.102487
 C        -0.541168        -0.214999        -0.225048
 C        -1.945906        -0.665513        -0.154060
 C        -2.875387         0.283247        -0.878619
 O        -2.296393        -0.634426         1.326002
 C        -3.571159        -1.104804         1.587827
 C        -4.038157        -0.716981         2.957057
 O        -4.298438        -1.753255         0.811071
 H         2.576342        -0.186201        -0.753997
 H         2.279875         1.460008        -0.292234
 H         2.445610         0.292040         1.096774
 H        -2.051225        -1.710310        -0.606739
 H        -2.655329         1.338934        -0.499973
 H        -2.686806         0.359817        -1.936387
 H        -3.892627        -0.009237        -0.783211
 H        -3.164061        -0.518467         3.588412
 H        -4.617207         0.183363         2.802262
 H        -4.635313        -1.576862         3.284257
