19
Iteration:  3720
 C         1.952453         0.307736        -0.447637
 C         0.743808        -0.304291        -0.174673
 C        -0.347948        -0.722717         0.104307
 C        -1.878699        -0.897027         0.013709
 C        -2.536535         0.082592        -0.863884
 O        -2.366223        -0.476284         1.414043
 C        -3.766214        -0.678881         1.565559
 C        -4.135962        -0.816488         3.081231
 O        -4.549903        -0.899513         0.704315
 H         2.416076         0.229686        -1.482329
 H         1.680129         1.424889        -0.366742
 H         2.660068         0.084693         0.442111
 H        -2.190151        -1.933894        -0.181149
 H        -3.558198        -0.002136        -0.838802
 H        -2.037982         0.956886        -0.612695
 H        -2.208817        -0.140958        -1.907109
 H        -5.192578        -0.666179         3.099952
 H        -3.794599        -1.836913         3.300265
 H        -3.598701        -0.073077         3.633461
