19
Iteration:  1680charge 0 multiplicity 1
 C         1.969733         0.416573        -0.227110
 C         0.609422         0.247599        -0.207168
 C        -0.515357        -0.139019         0.105476
 C        -1.894563        -0.534128         0.079389
 C        -2.635661         0.208772        -1.051786
 O        -2.509551        -0.450649         1.364380
 C        -3.640215        -1.155879         1.563611
 C        -3.964049        -1.147558         3.088400
 O        -4.354048        -1.588646         0.691786
 H         2.467982         0.002528         0.593922
 H         2.321120         0.054441        -1.176948
 H         2.262170         1.584729        -0.308319
 H        -1.852873        -1.639431        -0.257931
 H        -2.762682         1.264603        -0.770467
 H        -2.089666        -0.074062        -1.886444
 H        -3.697367        -0.162449        -1.178888
 H        -5.054103        -0.888866         3.127308
 H        -3.752140        -2.172000         3.466879
 H        -3.290379        -0.422128         3.604676
