19
Iteration:   592charge 0 multiplicity 1
 C         1.828139         0.461383         0.100887
 C         0.359533         0.319736         0.106776
 C        -0.798928         0.069268        -0.103667
 C        -2.212204        -0.221267        -0.276827
 C        -2.884936         0.781117        -1.192095
 O        -2.777476        -0.383015         1.088453
 C        -3.363774        -1.456683         1.613263
 C        -3.782178        -1.131038         3.044564
 O        -3.455017        -2.540319         1.006336
 H         2.516963        -0.392144         0.380333
 H         2.146100         0.869431        -0.813186
 H         2.172032         1.301233         0.814676
 H        -2.292243        -1.169302        -0.745161
 H        -2.681063         1.887455        -1.065247
 H        -2.509868         0.586788        -2.172193
 H        -3.942199         0.523985        -1.154103
 H        -4.449286        -0.219486         3.067918
 H        -4.224739        -2.102390         3.392958
 H        -2.863261        -0.741692         3.584787
