19
Iteration:  3749
 C         1.912753         0.335948        -0.524028
 C         0.677422        -0.269303        -0.234429
 C        -0.367809        -0.812774         0.099433
 C        -1.895740        -0.799097         0.120452
 C        -2.266194         0.298071        -0.901747
 O        -2.435809        -0.637249         1.536757
 C        -3.803549        -0.821415         1.637079
 C        -4.170961        -0.679274         3.052406
 O        -4.561930        -1.037105         0.650824
 H         2.254400         0.119952        -1.499525
 H         1.719200         1.421390        -0.535645
 H         2.711204         0.102449         0.141160
 H        -2.272456        -1.826745        -0.179079
 H        -3.428376         0.505501        -1.075235
 H        -1.569023         1.126113        -0.729832
 H        -1.957388        -0.187861        -1.841340
 H        -5.253883        -0.511405         3.149156
 H        -3.786934        -1.550450         3.569540
 H        -3.601628         0.231964         3.339820
