19
Iteration:  2957
 C         1.948024         0.107851         0.093519
 C         0.576662        -0.338511         0.043046
 C        -0.581703        -0.576499        -0.223743
 C        -2.014225        -0.567456        -0.219640
 C        -2.487453         0.669183        -1.090622
 O        -2.542511        -0.319303         1.161051
 C        -3.668597        -0.979045         1.557160
 C        -3.823507        -0.679605         3.059664
 O        -4.365841        -1.696902         0.942773
 H         2.231157         0.876639         0.977051
 H         2.690389        -0.776547         0.147121
 H         2.092905         0.516453        -0.995225
 H        -2.315077        -1.538956        -0.655759
 H        -3.670926         0.634070        -1.076037
 H        -2.262363         1.568263        -0.521388
 H        -2.102291         0.752796        -2.081611
 H        -3.107352        -1.119522         3.738106
 H        -3.704707         0.397193         3.163581
 H        -4.826303        -1.026104         3.327598
