19
Iteration:  4709
 C         2.130990        -0.511246        -0.286171
 C         0.695131        -0.379383        -0.298339
 C        -0.541277        -0.363984        -0.220150
 C        -1.994130        -0.470137        -0.148115
 C        -2.796882         0.605036        -0.872290
 O        -2.349454        -0.690408         1.235240
 C        -3.619958        -0.853835         1.703158
 C        -3.828692        -0.546859         3.204018
 O        -4.614692        -1.066294         0.969805
 H         2.750610         0.456450        -0.256729
 H         2.493429        -1.025048         0.620765
 H         2.429246        -1.240705        -1.085162
 H        -2.317685        -1.510042        -0.636990
 H        -3.914044         0.414378        -1.052867
 H        -2.763444         1.665213        -0.384753
 H        -2.271952         0.737605        -1.871202
 H        -2.913854        -0.682709         3.832100
 H        -4.142840         0.490829         3.324739
 H        -4.582131        -1.278052         3.562547
