19
Iteration:  1905
 C         2.032447         0.244324         0.123690
 C         0.553402         0.120004         0.012658
 C        -0.589871        -0.232029        -0.314203
 C        -2.028884        -0.543113        -0.296773
 C        -2.811144         0.490569        -1.031552
 O        -2.486238        -0.359779         1.193171
 C        -3.525290        -1.164327         1.604743
 C        -4.007261        -0.748079         2.989651
 O        -4.105864        -2.023313         1.035497
 H         2.350137         0.251177        -1.064637
 H         2.445775         1.292302         0.411216
 H         2.574765        -0.483193         0.632739
 H        -2.320142        -1.557271        -0.626941
 H        -2.714186         1.324173        -0.398844
 H        -2.191514         0.757062        -1.992142
 H        -3.846970         0.093083        -1.242839
 H        -3.991547         0.339163         3.057147
 H        -5.056437        -1.076784         3.057342
 H        -3.362125        -1.164291         3.771713
