19
Iteration:  4344
 C         1.693685        -0.647136        -0.308403
 C         0.288328        -0.669273        -0.272825
 C        -0.890777        -0.598833        -0.088640
 C        -2.267005        -0.095148        -0.222699
 C        -2.023653         1.289057        -0.935306
 O        -2.952086         0.151745         1.111181
 C        -3.435995        -1.007853         1.744353
 C        -4.044933        -0.555138         2.997150
 O        -3.518721        -2.225404         1.331886
 H         2.343582        -1.380254         0.230826
 H         1.940461        -1.172400        -1.307119
 H         2.426210         0.286545        -0.376605
 H        -2.892213        -0.917542        -0.846690
 H        -2.988298         1.808906        -1.054366
 H        -1.232052         1.708517        -0.400717
 H        -1.553956         1.070825        -1.851913
 H        -4.663499        -1.341716         3.432641
 H        -3.301559        -0.197463         3.726460
 H        -4.496795         0.380449         2.729359
