19
Iteration:  2863charge 0 multiplicity 1
 C         2.137412         0.176203        -0.245252
 C         0.663920         0.027619        -0.153763
 C        -0.438950        -0.452578        -0.021499
 C        -1.847279        -0.760370        -0.054758
 C        -2.618357         0.225543        -0.921634
 O        -2.338637        -0.710143         1.389275
 C        -3.742110        -0.827298         1.602088
 C        -4.250083        -0.798017         3.054566
 O        -4.466965        -1.153472         0.719735
 H         2.462158         1.323452         0.191288
 H         2.771944        -0.443643         0.378812
 H         2.398884         0.043637        -1.287320
 H        -2.104990        -1.776066        -0.418736
 H        -3.728456         0.037754        -0.884529
 H        -2.421326         1.305105        -0.689270
 H        -2.322267         0.161851        -1.972703
 H        -4.575511        -1.769206         3.453397
 H        -3.404416        -0.390526         3.687517
 H        -5.149570        -0.096167         3.001662
