19
Iteration:  1912
 C         1.986080         0.235831         0.070020
 C         0.521188         0.136685         0.007484
 C        -0.569463        -0.266878        -0.332161
 C        -1.997043        -0.565869        -0.269414
 C        -2.745508         0.518511        -1.093497
 O        -2.513581        -0.299615         1.223642
 C        -3.497622        -1.149086         1.634597
 C        -4.043622        -0.787274         3.053682
 O        -4.073821        -2.058897         1.002680
 H         2.379041         0.245571        -0.877523
 H         2.280961         1.099463         0.578618
 H         2.388521        -0.629501         0.741202
 H        -2.330290        -1.565523        -0.651340
 H        -2.796480         1.445281        -0.472736
 H        -2.355521         0.781287        -2.058414
 H        -3.759416         0.331816        -1.283656
 H        -4.071492         0.330315         2.982527
 H        -5.051967        -1.130112         3.146397
 H        -3.234978        -0.981994         3.745484
