19
Iteration:  2903charge 0 multiplicity 1
 C         2.037497         0.224770        -0.042804
 C         0.636698        -0.224552        -0.217607
 C        -0.532868        -0.522628        -0.092198
 C        -2.004120        -0.696273        -0.060565
 C        -2.632361         0.390749        -0.864938
 O        -2.336849        -0.586661         1.366416
 C        -3.663005        -0.910671         1.550589
 C        -4.049791        -0.694970         3.015507
 O        -4.400106        -1.309426         0.652967
 H         1.948771         1.073635         0.430862
 H         2.568192        -0.582771         0.501120
 H         2.490452         0.683229        -0.977158
 H        -2.190487        -1.692628        -0.479349
 H        -3.720417         0.486164        -0.490855
 H        -1.951477         1.196429        -0.845596
 H        -2.719660        -0.074311        -1.814942
 H        -3.772847        -1.552576         3.640136
 H        -3.382674         0.064123         3.450489
 H        -5.092454        -0.395596         3.131617
