19
Iteration:  1835charge 0 multiplicity 1
 C         2.025839         0.469356        -0.008612
 C         0.587936         0.147808        -0.100596
 C        -0.535583        -0.223644        -0.226975
 C        -1.941732        -0.675280        -0.150776
 C        -2.875098         0.287492        -0.891928
 O        -2.295990        -0.634911         1.330227
 C        -3.569648        -1.104480         1.583203
 C        -4.041608        -0.717608         2.965526
 O        -4.294780        -1.746346         0.813230
 H         2.548954        -0.182334        -0.708074
 H         2.319249         1.440856        -0.303861
 H         2.445077         0.270282         1.117599
 H        -2.066184        -1.706403        -0.635770
 H        -2.630532         1.345293        -0.489015
 H        -2.683242         0.372231        -1.910390
 H        -3.896359        -0.040519        -0.761712
 H        -3.175621        -0.546100         3.609843
 H        -4.636052         0.197008         2.830361
 H        -4.676902        -1.598148         3.235694
