19
Iteration:  1648charge 0 multiplicity 1
 C         2.179164         0.438257        -0.158724
 C         0.765347         0.110588        -0.046070
 C        -0.470142        -0.079661        -0.126672
 C        -1.925472        -0.524605        -0.025347
 C        -3.045965         0.251016        -0.987177
 O        -2.446461        -0.407175         1.325216
 C        -3.633430        -1.052551         1.613243
 C        -4.093701        -1.112447         3.030628
 O        -4.219797        -1.759775         0.738697
 H         2.818035         0.320395         0.715063
 H         2.552920        -0.182280        -0.915420
 H         2.132297         1.550336        -0.620445
 H        -1.937434        -1.569327        -0.473062
 H        -3.008615         1.293120        -0.500842
 H        -2.561097         0.334473        -1.917452
 H        -4.066332        -0.269589        -0.985210
 H        -4.840531        -0.363853         3.370502
 H        -4.492357        -2.124315         3.194501
 H        -3.348055        -1.014868         3.830096
