19
Iteration:  4288
 C         1.701377        -1.051571        -0.161416
 C         0.182446        -0.852554        -0.102900
 C        -0.956326        -0.507698        -0.172515
 C        -2.369894        -0.009407        -0.284660
 C        -2.439643         1.394514        -0.925196
 O        -3.030098         0.238286         1.032907
 C        -3.205665        -0.890774         1.713572
 C        -4.019433        -0.641048         2.909183
 O        -2.961136        -2.064757         1.310570
 H         2.103138        -1.859789         0.429918
 H         2.020534        -0.985058        -1.224361
 H         2.031426        -0.113000         0.442690
 H        -2.773254        -0.856871        -0.964626
 H        -3.453500         1.668943        -1.148320
 H        -2.246270         2.200772        -0.244000
 H        -1.872239         1.399999        -1.796946
 H        -4.953285        -1.224032         2.829764
 H        -3.510958        -1.047664         3.799346
 H        -4.290482         0.406432         2.995217
