19
Iteration:   376charge 0 multiplicity 1
 C         1.602349        -0.197769         0.264780
 C         0.187398         0.147500         0.119378
 C        -1.028250         0.045143        -0.068544
 C        -2.473267        -0.073004        -0.420859
 C        -3.141531         0.992934        -1.147745
 O        -3.167956        -0.128569         0.894335
 C        -2.982592        -1.286179         1.613622
 C        -3.916798        -1.389499         2.755116
 O        -2.187926        -2.169121         1.299955
 H         2.307609         0.694231         0.600515
 H         1.677994        -0.920888         1.081898
 H         2.113090        -0.658254        -0.529195
 H        -2.598748        -1.160023        -0.732735
 H        -3.444086         1.785915        -0.410909
 H        -2.586009         1.386268        -1.973368
 H        -4.159171         0.744548        -1.413623
 H        -3.462519        -1.755052         3.716962
 H        -4.440107        -0.406543         2.916183
 H        -4.745651        -2.145686         2.566627
