19
Iteration:  3984charge 0 multiplicity 1
 C         1.679370        -0.771603         0.167543
 C         0.318923        -0.390980        -0.102333
 C        -0.910375        -0.408755        -0.105301
 C        -2.328731        -0.055504        -0.349840
 C        -2.452989         1.209038        -1.138688
 O        -2.901865         0.125335         1.017780
 C        -3.381687        -0.987061         1.624771
 C        -3.520396        -0.901333         3.145220
 O        -3.610653        -2.060193         1.013486
 H         2.033977        -1.625040        -0.402594
 H         2.311081         0.072009        -0.051667
 H         1.761605        -1.016103         1.233146
 H        -2.737557        -1.092830        -0.534091
 H        -3.420247         1.357884        -1.687246
 H        -2.354988         2.077185        -0.383310
 H        -1.652219         1.238069        -1.880870
 H        -2.755253        -1.465801         3.666191
 H        -3.483701         0.118890         3.499891
 H        -4.465226        -1.360954         3.453690
