19
Iteration:  4756charge 0 multiplicity 1
 C         2.047285        -0.674424        -0.502977
 C         0.652833        -0.421175        -0.062836
 C        -0.571557        -0.335241        -0.111460
 C        -2.056538        -0.391176         0.033274
 C        -2.745649         0.633294        -0.922185
 O        -2.370234        -0.292590         1.355653
 C        -3.646009        -0.837754         1.618031
 C        -3.839314        -0.624323         3.141330
 O        -4.424269        -1.329784         0.836918
 H         2.445971         0.308334        -0.949605
 H         2.795885        -0.980127         0.334844
 H         1.959302        -1.533890        -1.209964
 H        -2.276610        -1.447355        -0.431496
 H        -3.759109         0.229441        -1.156825
 H        -2.964609         1.619525        -0.453629
 H        -2.203874         0.758852        -1.824362
 H        -3.018533        -0.990052         3.743705
 H        -3.686685         0.456234         3.303483
 H        -4.784768        -0.971560         3.570847
