19
Iteration:   657charge 0 multiplicity 1
 C         1.902579         0.522312         0.182568
 C         0.470179         0.368165        -0.159889
 C        -0.721250         0.050662        -0.174767
 C        -2.124720        -0.384668        -0.103231
 C        -3.115219         0.337146        -1.018082
 O        -2.516888        -0.247752         1.309023
 C        -3.338668        -1.349286         1.528448
 C        -3.839789        -1.185798         2.966030
 O        -3.674819        -2.196185         0.719568
 H         2.499672        -0.354090        -0.181960
 H         2.150874         1.503728        -0.160846
 H         1.880749         0.514127         1.413568
 H        -2.210905        -1.422412        -0.354509
 H        -3.506111         1.242970        -0.421491
 H        -2.645889         0.581258        -1.934132
 H        -4.068873        -0.224972        -1.109049
 H        -4.908663        -1.416415         2.975766
 H        -3.255448        -1.855423         3.674453
 H        -3.752574        -0.105680         3.295631
