19
Iteration:  4924
 C         1.844753        -0.839508        -0.281928
 C         0.415094        -0.665023        -0.400382
 C        -0.739060        -0.386762        -0.356546
 C        -2.143442        -0.068965        -0.193924
 C        -2.358653         1.313303        -0.877911
 O        -2.674121         0.019412         1.136304
 C        -3.419706        -0.993162         1.797950
 C        -4.079321        -0.567214         3.013319
 O        -3.801020        -2.118911         1.372541
 H         2.189374        -0.801441        -1.342689
 H         2.208803         0.026710         0.288476
 H         2.056197        -1.834818         0.237702
 H        -2.851795        -0.863272        -0.585590
 H        -3.291564         1.206337        -1.411602
 H        -2.562295         1.993257        -0.064864
 H        -1.596788         1.589077        -1.517721
 H        -4.924812        -1.275175         3.284885
 H        -3.465020        -0.750273         3.902734
 H        -4.494806         0.448185         2.985176
