19
Iteration:  1799charge 0 multiplicity 1
 C         1.911241         0.586144        -0.126478
 C         0.535565         0.140236        -0.185108
 C        -0.569145        -0.404706        -0.115083
 C        -1.945160        -0.725272        -0.046373
 C        -2.643730         0.278798        -0.997505
 O        -2.312726        -0.575169         1.402482
 C        -3.562732        -1.087964         1.636096
 C        -4.074826        -0.883349         3.023445
 O        -4.276419        -1.571388         0.718184
 H         2.487412        -0.228852        -0.414797
 H         2.209655         1.489081        -0.731474
 H         2.258949         0.754702         0.975243
 H        -2.258518        -1.732216        -0.410141
 H        -2.570622         1.256435        -0.533868
 H        -2.116521         0.140792        -1.956541
 H        -3.747487         0.014411        -1.089456
 H        -3.670565        -1.624116         3.754985
 H        -3.893593         0.145224         3.452798
 H        -5.189337        -1.055185         3.071458
