19
Iteration:  1830charge 0 multiplicity 1
 C         1.991716         0.500104        -0.026944
 C         0.596982         0.193308        -0.089311
 C        -0.535097        -0.287924        -0.234048
 C        -1.913083        -0.723608        -0.142485
 C        -2.870444         0.321678        -0.931542
 O        -2.299926        -0.644161         1.339765
 C        -3.562836        -1.099504         1.564707
 C        -4.069893        -0.733010         3.002050
 O        -4.267175        -1.704479         0.823863
 H         2.520097        -0.337687        -0.565718
 H         2.496036         1.479733        -0.370596
 H         2.319745         0.228984         0.918721
 H        -2.128289        -1.637277        -0.639799
 H        -2.620835         1.233081        -0.465647
 H        -2.589848         0.398667        -2.060590
 H        -3.881003        -0.120215        -0.668663
 H        -3.276205        -0.709557         3.775757
 H        -4.690678         0.201404         3.024234
 H        -4.824318        -1.552591         3.043459
