19
Iteration:  2681
 C         2.055175        -0.075879        -0.006145
 C         0.660638        -0.093221         0.009295
 C        -0.523271        -0.255190        -0.172971
 C        -2.011675        -0.453367        -0.156503
 C        -2.893403         0.623429        -0.908731
 O        -2.431458        -0.405014         1.185570
 C        -3.597369        -1.040040         1.547608
 C        -4.055958        -0.570790         2.949640
 O        -4.127229        -1.933279         0.875077
 H         2.384683         0.480447        -0.833469
 H         2.375922         0.384910         1.017891
 H         2.382725        -1.215280        -0.000900
 H        -2.129298        -1.514662        -0.499766
 H        -3.435614         1.227233        -0.220244
 H        -2.233719         1.451435        -1.312790
 H        -3.480547         0.146118        -1.701158
 H        -4.033442         0.481254         2.878471
 H        -5.078359        -0.964867         3.081588
 H        -3.522955        -1.026087         3.789047
