19
Iteration:  4178
 C         1.081718        -1.572991         0.407872
 C        -0.004207        -0.756182         0.031627
 C        -0.920615        -0.001990        -0.265669
 C        -2.327266         0.275094        -0.403581
 C        -2.914461         1.393134        -1.130127
 O        -3.008202         0.235808         0.956744
 C        -2.859320        -0.944103         1.658130
 C        -3.727486        -0.843338         2.871973
 O        -2.397185        -1.957861         1.184670
 H         0.920365        -2.648432         0.214051
 H         1.905504        -1.318806        -0.354113
 H         1.563087        -1.392047         1.487136
 H        -2.844799        -0.652512        -0.923592
 H        -3.971762         1.211733        -1.272665
 H        -2.694980         2.387942        -0.601149
 H        -2.392029         1.554549        -2.032675
 H        -4.551793        -0.164432         2.691175
 H        -4.222865        -1.819715         2.984229
 H        -3.228370        -0.514894         3.820117
