19
Iteration:  2632
 C         1.997890        -0.188503         0.268184
 C         0.556623        -0.102313        -0.155861
 C        -0.653152        -0.175195        -0.288562
 C        -2.093895        -0.301982        -0.280171
 C        -2.774807         0.779178        -0.981009
 O        -2.493190        -0.397639         1.158717
 C        -3.510424        -1.153902         1.576173
 C        -4.045052        -0.541794         2.958346
 O        -3.953186        -2.114575         1.007232
 H         2.573712         0.035277        -0.764254
 H         2.281261         0.614559         0.909466
 H         2.254015        -1.134281         0.672189
 H        -2.392665        -1.286342        -0.692335
 H        -2.655452         1.829209        -0.530105
 H        -2.491293         0.853659        -2.030469
 H        -3.823536         0.414915        -0.959807
 H        -3.311289         0.219248         3.366474
 H        -5.054601        -0.061240         2.898858
 H        -4.063225        -1.425177         3.624415
