19
Iteration:  4557
 C         2.116905        -0.290486        -0.222813
 C         0.596128        -0.473418        -0.255966
 C        -0.634117        -0.729784        -0.233290
 C        -2.075043        -0.546379        -0.184469
 C        -2.441134         0.605684        -1.089593
 O        -2.485868        -0.376248         1.231708
 C        -3.667112        -0.738568         1.755159
 C        -3.684874        -0.845219         3.211434
 O        -4.690646        -1.030323         1.059963
 H         2.319319         0.537653         0.557590
 H         2.620241        -1.253325         0.077736
 H         2.383735         0.212851        -1.159956
 H        -2.655126        -1.479712        -0.491041
 H        -3.509115         0.808162        -1.173335
 H        -1.827264         1.458606        -0.706170
 H        -2.071378         0.508029        -2.049539
 H        -2.693606        -1.104932         3.617668
 H        -3.914833         0.166753         3.601791
 H        -4.486605        -1.452582         3.613928
