19
Iteration:  1121
 C         1.729487         0.140799         0.353006
 C         0.369270        -0.037238        -0.086643
 C        -0.825746        -0.167175        -0.233923
 C        -2.264967        -0.184962        -0.325101
 C        -2.925675         0.865680        -1.143948
 O        -3.018462        -0.014138         1.039155
 C        -3.262506        -1.278508         1.561007
 C        -3.815636        -1.177266         2.984903
 O        -3.017881        -2.329755         1.066603
 H         2.078561        -0.859592         0.890746
 H         2.356332         0.249239        -0.437576
 H         1.922031         0.968393         1.088768
 H        -2.621724        -1.137001        -0.717108
 H        -2.624489         1.913857        -0.838778
 H        -2.839481         0.746021        -2.163386
 H        -4.020777         0.896275        -0.879593
 H        -3.254308        -1.819437         3.666808
 H        -3.776959        -0.189396         3.451609
 H        -4.775078        -1.543411         3.242989
