19
Iteration:  4895
 C         1.976756        -0.794791        -0.444385
 C         0.501271        -0.629759        -0.275591
 C        -0.690098        -0.498431        -0.132726
 C        -2.147974        -0.151955        -0.203857
 C        -2.434863         1.289774        -0.833876
 O        -2.788872        -0.153462         1.156624
 C        -3.608180        -1.029909         1.722055
 C        -3.987253        -0.379696         3.083178
 O        -3.819548        -2.043650         1.203182
 H         2.098221        -0.388330        -1.444952
 H         2.437112        -0.043945         0.209733
 H         2.413214        -1.781636        -0.131856
 H        -2.816572        -0.872185        -0.618911
 H        -3.573797         1.350708        -1.035172
 H        -2.354298         2.013641         0.063378
 H        -1.733948         1.529668        -1.652067
 H        -4.528206        -1.125680         3.701707
 H        -2.992774        -0.079423         3.528364
 H        -4.638454         0.535515         2.969350
