19
Iteration:  4381charge 0 multiplicity 1
 C         1.918383        -0.661655        -0.450029
 C         0.485855        -0.594375        -0.145524
 C        -0.759106        -0.610983        -0.041939
 C        -2.122566        -0.232241        -0.221500
 C        -2.281892         1.233766        -0.877245
 O        -2.808240         0.001434         1.109639
 C        -3.580232        -0.991090         1.719527
 C        -4.059904        -0.466646         3.061505
 O        -3.793989        -2.093057         1.208420
 H         2.583048        -1.005476         0.415155
 H         1.981396        -1.212378        -1.402092
 H         2.126852         0.368283        -0.776871
 H        -2.780725        -0.930777        -0.647055
 H        -3.213713         1.690101        -0.558821
 H        -1.572376         2.015714        -0.517394
 H        -2.309000         1.181318        -2.015906
 H        -4.256899        -1.282329         3.759591
 H        -3.212130         0.095850         3.424008
 H        -5.025544         0.074242         3.022605
