19
Iteration:  4641
 C         1.854080        -0.106921        -0.145384
 C         0.472215        -0.630964        -0.119663
 C        -0.653353        -0.912419        -0.445522
 C        -2.072530        -0.614562        -0.257906
 C        -2.605521         0.759610        -0.878150
 O        -2.182787        -0.672149         1.269278
 C        -3.543063        -0.826419         1.671790
 C        -3.744210        -0.614564         3.190140
 O        -4.530669        -0.886330         0.970462
 H         1.940418         0.960051         0.095322
 H         2.472967        -0.622178         0.579927
 H         2.438967        -0.333921        -1.083520
 H        -2.801641        -1.427283        -0.543981
 H        -3.606607         1.077619        -0.659440
 H        -1.891330         1.517822        -0.495712
 H        -2.358087         0.619903        -2.066190
 H        -2.765263        -0.755066         3.680012
 H        -4.215396         0.372994         3.427424
 H        -4.403542        -1.454257         3.363944
