19
Iteration:  1379charge 0 multiplicity 1
 C         1.694489        -0.363069         0.282032
 C         0.266241        -0.024339         0.203983
 C        -0.888308        -0.107933        -0.249980
 C        -2.394779        -0.117734        -0.442434
 C        -3.075194         1.129719        -1.153778
 O        -3.021343        -0.057749         0.910776
 C        -3.084603        -1.211025         1.635315
 C        -4.018389        -1.056546         2.903972
 O        -2.532251        -2.283324         1.237037
 H         2.267160         0.128500        -0.510301
 H         2.119461        -0.455458         1.364332
 H         1.622144        -1.341784        -0.040286
 H        -2.672397        -1.036027        -0.920411
 H        -3.221585         1.871760        -0.336194
 H        -2.575573         1.366378        -1.967005
 H        -4.131334         0.794298        -1.384256
 H        -4.464838        -2.023358         3.296510
 H        -3.330485        -0.763470         3.760557
 H        -4.816433        -0.406213         2.542119
