19
Iteration:  2799
 C         2.092311         0.170804        -0.442580
 C         0.753869        -0.159748        -0.005505
 C        -0.429761        -0.354755         0.342133
 C        -1.909869        -0.688613         0.022892
 C        -2.478016         0.238959        -0.993592
 O        -2.547494        -0.418395         1.307812
 C        -3.802695        -0.890666         1.516558
 C        -4.010994        -0.890753         3.028549
 O        -4.578062        -1.302950         0.682422
 H         2.077601         1.267058        -0.551309
 H         2.913491         0.045711         0.208783
 H         2.341927        -0.334030        -1.338628
 H        -2.174740        -1.752536        -0.197897
 H        -3.276518        -0.253936        -1.547849
 H        -3.133129         0.960804        -0.477510
 H        -1.630490         0.625852        -1.556392
 H        -4.928106        -1.236096         3.440595
 H        -3.087854        -1.335013         3.446172
 H        -3.794448         0.126662         3.432573
