19
Iteration:  2138
 C         1.624266        -0.445839         0.289203
 C         0.265630        -0.233075         0.005840
 C        -0.962116        -0.352951        -0.166852
 C        -2.417654        -0.156466        -0.344036
 C        -2.742485         1.110513        -1.194776
 O        -2.855634         0.067460         1.055810
 C        -3.096050        -1.167043         1.673868
 C        -4.096358        -0.857736         2.826179
 O        -2.792057        -2.221057         1.191073
 H         2.079365         0.549163         0.749391
 H         1.704707        -1.216417         1.076137
 H         2.240540        -0.718898        -0.594285
 H        -3.030367        -0.955614        -0.716602
 H        -2.067268         2.066224        -1.017456
 H        -2.620882         1.017583        -2.281334
 H        -3.796175         1.269345        -1.159125
 H        -3.658261        -0.985336         3.864160
 H        -4.703337         0.056573         2.716097
 H        -4.761531        -1.733334         2.664203
