19
Iteration:  4072
 C         1.434205        -1.028363         0.554742
 C        -0.004932        -0.745468         0.086054
 C        -1.146893        -0.420984        -0.347064
 C        -2.504073         0.105653        -0.526398
 C        -2.488790         1.618196        -0.984052
 O        -3.184356         0.105825         0.793418
 C        -3.086700        -1.056453         1.537077
 C        -3.258440        -0.716124         2.984871
 O        -2.952104        -2.206081         1.158714
 H         1.671232        -2.004363         0.167386
 H         2.159628        -0.389163         0.113223
 H         1.617200        -1.072347         1.592062
 H        -3.212881        -0.371181        -1.179987
 H        -3.463754         2.168198        -0.678820
 H        -1.598928         2.049749        -0.480563
 H        -2.428481         1.697160        -2.066504
 H        -2.767172         0.215270         3.126067
 H        -4.329821        -0.618490         3.147043
 H        -2.900582        -1.492721         3.668431
