19
Iteration:  4318
 C         1.702690        -0.816653        -0.267934
 C         0.237376        -0.759508        -0.226858
 C        -0.936981        -0.688388        -0.142222
 C        -2.291508        -0.101724        -0.257423
 C        -2.208020         1.334769        -0.863796
 O        -2.967525         0.118194         1.006366
 C        -3.426845        -0.944187         1.682426
 C        -4.111003        -0.576933         3.062510
 O        -3.177398        -1.996664         1.296031
 H         2.250117        -1.450264         0.407621
 H         2.253324        -0.949040        -1.240862
 H         2.016650         0.168094         0.063007
 H        -2.846848        -0.775709        -0.956161
 H        -3.222924         1.585697        -1.142223
 H        -1.824621         2.187684        -0.063942
 H        -1.478045         1.231428        -1.715228
 H        -4.792872        -1.414421         3.310825
 H        -3.259327        -0.718557         3.791462
 H        -4.468859         0.479736         3.189558
