19
Iteration:  2980charge 0 multiplicity 1
 C         2.021167        -0.041544         0.149531
 C         0.494276        -0.219174        -0.072871
 C        -0.692937        -0.534074        -0.061724
 C        -2.143217        -0.502203        -0.241773
 C        -2.453323         0.720779        -1.161098
 O        -2.622220        -0.233715         1.073004
 C        -3.667721        -1.014335         1.618915
 C        -3.743156        -0.621449         3.074784
 O        -4.252997        -1.852740         0.952356
 H         2.262466         0.459696         1.228366
 H         2.464764        -1.112237         0.186015
 H         2.627514         0.550581        -0.721565
 H        -2.378275        -1.479772        -0.732575
 H        -3.538575         0.639380        -1.552525
 H        -2.390426         1.638956        -0.514514
 H        -1.737266         0.735775        -1.949909
 H        -2.848454        -0.984398         3.541685
 H        -3.823602         0.454396         3.318410
 H        -4.540582        -1.315183         3.436211
