19
Iteration:   812charge 0 multiplicity 1
 C         1.645133         1.084042        -0.151825
 C         0.589001         0.110153        -0.098550
 C        -0.528525        -0.316839        -0.011766
 C        -1.897433        -0.687656        -0.055637
 C        -2.597006         0.340822        -0.936853
 O        -2.446281        -0.572374         1.340417
 C        -3.583352        -1.202925         1.501194
 C        -3.952565        -1.245510         3.182952
 O        -4.154580        -1.793497         0.622734
 H         1.275618         1.909451        -0.843739
 H         1.914055         1.535305         0.720514
 H         2.684240         0.657451        -0.611420
 H        -2.041638        -1.689740        -0.460225
 H        -2.715018         1.155100        -0.205609
 H        -1.941923         0.665359        -1.838161
 H        -3.507003        -0.092155        -1.407988
 H        -2.916057        -1.253909         3.679776
 H        -4.633252        -0.318957         3.381872
 H        -4.710145        -2.049825         3.337397
