19
Iteration:   259charge 0 multiplicity 1
 C         1.489189         0.071187         0.432996
 C         0.169333         0.083659        -0.047229
 C        -1.010557        -0.160148        -0.132775
 C        -2.342107        -0.149056        -0.506546
 C        -3.088710         1.158389        -0.969570
 O        -3.260816        -0.363779         0.774007
 C        -3.014072        -1.348332         1.585339
 C        -3.788741        -1.203758         2.838016
 O        -2.244607        -2.246983         1.264913
 H         2.168201         0.206956        -0.330091
 H         1.692655         0.731334         1.310744
 H         1.644035        -1.074500         0.869927
 H        -2.581643        -0.956920        -1.193006
 H        -2.735795         2.003246        -0.205211
 H        -2.923258         1.500204        -2.022313
 H        -4.250282         1.121508        -0.693591
 H        -4.275891        -2.151308         3.145104
 H        -3.084643        -0.913866         3.662132
 H        -4.607540        -0.468560         2.738206
