19
Iteration:  1262charge 0 multiplicity 1
 C         1.425170        -0.386868         0.377519
 C         0.040143        -0.183885         0.197743
 C        -1.119830        -0.059947        -0.104480
 C        -2.479429        -0.042676        -0.463714
 C        -2.843229         1.222080        -1.161320
 O        -3.273343        -0.249796         0.689031
 C        -2.995200        -1.257089         1.589200
 C        -3.822778        -1.064252         2.943097
 O        -2.147601        -2.174776         1.309495
 H         1.860716        -0.871259        -0.436348
 H         1.905064         0.588638         0.458985
 H         1.825269        -1.033177         1.310106
 H        -2.716567        -0.931435        -1.168029
 H        -2.157512         2.078512        -0.727765
 H        -2.684339         1.127249        -2.215285
 H        -3.903950         1.660995        -0.913100
 H        -4.370381        -0.135873         2.855182
 H        -4.457029        -1.937066         2.970989
 H        -3.100138        -0.827840         3.669480
