19
Iteration:  3574charge 0 multiplicity 1
 C         1.844582        -0.066530         0.314795
 C         0.495703        -0.351681        -0.022136
 C        -0.636789        -0.435239        -0.384984
 C        -2.080064        -0.604531        -0.297766
 C        -2.831749         0.314670        -1.220579
 O        -2.301165        -0.302592         1.160924
 C        -3.487230        -0.873164         1.653123
 C        -3.657367        -0.593437         3.117693
 O        -4.324161        -1.421714         0.915138
 H         2.471021        -0.565203        -0.473624
 H         2.198630         1.057444         0.327488
 H         2.139242        -0.372853         1.356844
 H        -2.253999        -1.702922        -0.340748
 H        -3.861298         0.193014        -0.905100
 H        -2.674499         1.385394        -1.066430
 H        -2.643259         0.106320        -2.232987
 H        -4.509696         0.088448         3.298537
 H        -3.925622        -1.502948         3.653237
 H        -2.807642        -0.106509         3.552762
