19
Iteration:  3527charge 0 multiplicity 1
 C         1.761298        -0.100320         0.301735
 C         0.514984        -0.428672        -0.180303
 C        -0.663307        -0.658024        -0.237775
 C        -2.102735        -0.506170        -0.346425
 C        -2.704105         0.672229        -1.179702
 O        -2.483937        -0.195206         1.043461
 C        -3.445987        -0.933172         1.600634
 C        -3.696248        -0.481347         3.045088
 O        -4.124775        -1.808050         1.147063
 H         2.688136        -0.540022        -0.162405
 H         1.928954         0.959301         0.359025
 H         1.692425        -0.229549         1.376953
 H        -2.752716        -1.363817        -0.604627
 H        -3.706029         0.837662        -0.957531
 H        -2.276998         1.730052        -0.886815
 H        -2.330357         0.599499        -2.254031
 H        -4.582780         0.168906         3.074806
 H        -4.033040        -1.361632         3.659940
 H        -2.958796         0.129078         3.617348
