19
Iteration:  4420charge 0 multiplicity 1
 C         1.962622        -0.724694        -0.397599
 C         0.522233        -0.605286        -0.286636
 C        -0.628450        -0.375103        -0.112339
 C        -2.114154        -0.236165        -0.090447
 C        -2.603601         0.995446        -0.907372
 O        -2.504625        -0.104537         1.337823
 C        -3.559698        -0.887402         1.711146
 C        -4.120465        -0.530504         3.076932
 O        -3.960699        -1.839970         1.007287
 H         2.535812        -0.816637         0.507381
 H         2.446509        -1.433487        -1.065653
 H         2.342606         0.219490        -0.898167
 H        -2.533540        -1.230091        -0.555753
 H        -3.698764         0.816183        -1.076539
 H        -2.327339         1.878799        -0.384112
 H        -2.195852         1.009515        -1.909967
 H        -3.922482        -1.371245         3.751831
 H        -3.612250         0.374201         3.427008
 H        -5.194241        -0.304986         3.086843
