19
Iteration:   926
 C         1.988190         0.768248        -0.244158
 C         0.599383         0.384634        -0.079444
 C        -0.558095         0.033938         0.122996
 C        -1.924884        -0.548688         0.053313
 C        -2.858175         0.258933        -0.879836
 O        -2.503823        -0.594724         1.306509
 C        -3.609182        -1.343314         1.502903
 C        -3.966775        -1.123979         2.970308
 O        -4.112921        -1.941366         0.624660
 H         2.163267         1.739390         0.380162
 H         2.562894        -0.121051         0.197996
 H         2.281812         0.875211        -1.194503
 H        -1.914942        -1.552808        -0.193301
 H        -2.982347         1.254009        -0.454177
 H        -2.493548         0.402934        -1.819946
 H        -3.778012        -0.295895        -1.069497
 H        -4.454948        -0.148874         3.134561
 H        -4.614051        -1.873146         3.459285
 H        -3.052028        -1.202765         3.622092
