19
Iteration:   957
 C         1.943426         0.703224        -0.195390
 C         0.598617         0.260517         0.074032
 C        -0.562434        -0.063047        -0.076154
 C        -1.970138        -0.458983        -0.083839
 C        -2.875449         0.394373        -1.028135
 O        -2.489363        -0.396524         1.333690
 C        -3.498777        -1.243999         1.599275
 C        -4.074585        -1.259692         2.974921
 O        -3.989028        -2.057643         0.777206
 H         2.264503         1.470189         0.658306
 H         2.539937        -0.161772        -0.111744
 H         1.991205         1.104471        -1.211337
 H        -2.083980        -1.512827        -0.230822
 H        -3.445575         1.069611        -0.389813
 H        -2.285377         0.876273        -1.801027
 H        -3.658747        -0.214288        -1.506071
 H        -4.924359        -0.544334         3.035999
 H        -4.231574        -2.344112         3.169187
 H        -3.335665        -0.806252         3.758381
