19
Iteration:     9
 C         1.849311         0.875638         0.030174
 C         0.501762         0.378840        -0.015531
 C        -0.670573         0.069668        -0.089380
 C        -2.011617        -0.323132        -0.090922
 C        -2.968661         0.531053        -0.959772
 O        -2.506185        -0.473887         1.265757
 C        -3.429434        -1.495710         1.578634
 C        -3.890871        -1.458916         2.891848
 O        -3.851556        -2.233851         0.719261
 H         2.231953         1.071213         1.157497
 H         2.638624         0.284115        -0.377536
 H         1.967258         1.758765        -0.365637
 H        -2.042039        -1.380422        -0.461054
 H        -3.228804         1.531130        -0.466571
 H        -2.668427         0.815779        -1.877153
 H        -4.032107         0.258785        -1.049405
 H        -4.652569        -2.272092         3.041094
 H        -2.980892        -1.577668         3.542439
 H        -4.163958        -0.447623         3.268145
