19
Iteration:  4995
 C         1.719351        -1.151862        -0.123529
 C         0.243397        -0.770240        -0.058528
 C        -0.864507        -0.271714        -0.151267
 C        -2.296069        -0.006907        -0.296465
 C        -2.712055         1.350566        -0.992348
 O        -2.759552         0.199100         1.085901
 C        -3.238244        -0.935923         1.690010
 C        -3.933411        -0.689093         3.049263
 O        -3.222436        -2.054354         1.118534
 H         1.931233        -1.480995        -1.155579
 H         2.168580        -0.103087        -0.008311
 H         2.059212        -1.858302         0.674919
 H        -2.969622        -0.766189        -0.590192
 H        -3.678524         1.774885        -0.596195
 H        -1.853783         1.990407        -0.630279
 H        -2.708087         1.331812        -2.192408
 H        -4.963054        -0.349330         2.910833
 H        -3.942850        -1.622987         3.671604
 H        -3.439830         0.136989         3.560408
