19
Iteration:   902charge 0 multiplicity 1
 C         1.961676         0.827536        -0.212927
 C         0.576688         0.458929        -0.160261
 C        -0.504373         0.013625         0.112369
 C        -1.845344        -0.495471        -0.009123
 C        -2.790829         0.259413        -0.913290
 O        -2.349436        -0.733985         1.397299
 C        -3.624113        -1.314501         1.536184
 C        -4.060699        -1.202875         2.928759
 O        -4.281048        -1.911605         0.710557
 H         2.046842         1.974108         0.080104
 H         2.510144         0.151601         0.374416
 H         2.267756         0.673397        -1.258838
 H        -1.760619        -1.501841        -0.285466
 H        -2.538921         1.299219        -0.885192
 H        -2.621191        -0.019597        -1.985538
 H        -3.821408        -0.018149        -0.828971
 H        -4.120674        -0.059399         2.963418
 H        -5.107657        -1.504994         3.217277
 H        -3.425040        -1.572027         3.825517
