19
Iteration:  1126
 C         1.708479         0.109433         0.390836
 C         0.362973        -0.066512        -0.066583
 C        -0.826260        -0.129178        -0.273905
 C        -2.275201        -0.205323        -0.311069
 C        -2.953919         0.905060        -1.127013
 O        -3.008872        -0.020575         1.016594
 C        -3.265025        -1.228200         1.569058
 C        -3.800766        -1.184340         2.990477
 O        -2.985285        -2.339771         1.090587
 H         2.033221        -0.817287         0.756939
 H         2.304637         0.262030        -0.649750
 H         1.787697         0.933663         1.090779
 H        -2.617873        -1.169193        -0.726029
 H        -2.647863         1.894990        -0.898264
 H        -2.547741         0.785645        -2.244043
 H        -4.012073         0.813428        -1.007171
 H        -3.103469        -1.784441         3.647925
 H        -3.937514        -0.214711         3.524845
 H        -4.841750        -1.690003         3.041887
