19
Iteration:  1510charge 0 multiplicity 1
 C         1.828484         0.310835         0.030738
 C         0.446302        -0.235029        -0.034941
 C        -0.768623        -0.288253        -0.022406
 C        -2.251685        -0.282277        -0.159192
 C        -2.725184         0.911207        -1.078685
 O        -2.814890        -0.185183         1.127354
 C        -3.372408        -1.305174         1.624503
 C        -3.849357        -0.877348         2.928637
 O        -3.530631        -2.355163         0.971346
 H         1.945982         1.418863         0.492770
 H         2.526856        -0.381038         0.653715
 H         2.266846         0.261818        -0.893389
 H        -2.550422        -1.221056        -0.582889
 H        -2.436690         1.901481        -0.541081
 H        -2.200885         0.940536        -1.988849
 H        -3.866234         0.932521        -1.348620
 H        -2.950922        -0.449420         3.404095
 H        -4.656910        -0.182985         2.645018
 H        -4.339991        -1.742876         3.438533
