19
Iteration:  1850charge 0 multiplicity 1
 C         2.033038         0.422361         0.019443
 C         0.633812         0.017885        -0.108047
 C        -0.546527        -0.101973        -0.162486
 C        -1.950129        -0.583838        -0.085181
 C        -2.952606         0.340057        -0.877527
 O        -2.377278        -0.646174         1.251075
 C        -3.578361        -1.206051         1.533201
 C        -3.925005        -0.658317         2.928184
 O        -4.274490        -1.809736         0.809110
 H         2.894391        -0.056773        -0.708377
 H         2.025083         1.573069        -0.069518
 H         2.417447         0.178114         0.949445
 H        -2.036242        -1.626128        -0.447896
 H        -2.818424         1.317688        -0.510449
 H        -2.529138         0.173293        -1.984017
 H        -3.949491        -0.096729        -0.663876
 H        -3.094880        -0.047926         3.327519
 H        -4.762487         0.028298         2.810549
 H        -4.393650        -1.259643         3.676650
