19
Iteration:  1328charge 0 multiplicity 1
 C         1.450774        -0.358386         0.475385
 C         0.168758        -0.358375        -0.230098
 C        -0.996114        -0.040233        -0.226706
 C        -2.423647        -0.018578        -0.444270
 C        -2.905459         1.183989        -1.208207
 O        -3.168125        -0.057929         0.938843
 C        -2.974338        -1.219175         1.668695
 C        -3.936447        -1.211075         2.922931
 O        -2.302639        -2.123859         1.322761
 H         2.173352        -0.073696        -0.198819
 H         1.310395         0.453269         1.245210
 H         1.725613        -1.353046         1.105825
 H        -2.670490        -0.997776        -0.983419
 H        -2.704200         1.992200        -0.419898
 H        -2.272595         1.271436        -2.159674
 H        -4.009744         1.180950        -1.413811
 H        -4.883427        -1.591133         2.523595
 H        -3.603792        -1.861655         3.717639
 H        -4.202351        -0.186178         3.220161
