19
Iteration:  3746
 C         1.946721         0.366039        -0.504630
 C         0.656619        -0.288330        -0.243665
 C        -0.376342        -0.829068         0.101190
 C        -1.876056        -0.823803         0.151780
 C        -2.302572         0.288185        -0.904147
 O        -2.445095        -0.615517         1.520616
 C        -3.806253        -0.819727         1.614068
 C        -4.164285        -0.693721         3.054725
 O        -4.553220        -1.014234         0.667756
 H         2.216505         0.128341        -1.578007
 H         1.789492         1.412857        -0.590685
 H         2.731209         0.094680         0.179258
 H        -2.236903        -1.786034        -0.186897
 H        -3.435254         0.409587        -1.037773
 H        -1.528008         1.118820        -0.730675
 H        -2.008046        -0.135628        -1.872987
 H        -5.267173        -0.496286         3.072531
 H        -3.747138        -1.628282         3.509651
 H        -3.594019         0.231429         3.321894
