19
Iteration:  1254
 C         1.519789        -0.372621         0.408526
 C         0.068242        -0.209854         0.167171
 C        -1.099807         0.006906        -0.080520
 C        -2.487567        -0.068476        -0.468045
 C        -2.857568         1.296218        -1.188799
 O        -3.369253        -0.263420         0.738495
 C        -2.996610        -1.335943         1.562572
 C        -3.757461        -1.045489         2.888039
 O        -2.202857        -2.180153         1.365700
 H         1.834119        -1.003028        -0.566561
 H         2.018783         0.541318         0.382397
 H         1.724016        -0.890933         1.329735
 H        -2.665625        -0.828160        -1.209592
 H        -2.234455         2.109438        -0.839977
 H        -2.632553         1.092921        -2.284469
 H        -3.912561         1.485749        -1.128249
 H        -4.214353        -0.067372         2.753599
 H        -4.511001        -1.805050         3.040538
 H        -3.000321        -1.131423         3.711221
