19
Iteration:  1070
 C         1.787186         0.262543         0.120136
 C         0.369706         0.127575         0.215360
 C        -0.786629         0.060455        -0.171967
 C        -2.193221        -0.294248        -0.288662
 C        -2.820015         0.878482        -1.165163
 O        -2.780806        -0.229644         1.090536
 C        -3.351714        -1.357056         1.570611
 C        -3.791979        -1.112162         2.931097
 O        -3.444468        -2.495126         1.062650
 H         2.430297        -0.115338         0.942659
 H         2.216947         0.008757        -0.935334
 H         1.919961         1.294116         0.206806
 H        -2.452013        -1.205119        -0.748448
 H        -2.271511         1.785279        -1.229483
 H        -3.103863         0.493003        -2.177818
 H        -3.774965         1.147393        -0.751856
 H        -4.266685        -1.957886         3.509127
 H        -3.074115        -0.529282         3.567760
 H        -4.672723        -0.467365         2.951459
