19
Iteration:  3206
 C         1.484197        -0.829453         0.333581
 C         0.072682        -0.669532         0.144148
 C        -1.044672        -0.522080        -0.240742
 C        -2.395754        -0.024725        -0.497875
 C        -2.343720         1.373459        -1.102954
 O        -3.414848        -0.125840         0.534687
 C        -3.157190        -0.956295         1.673579
 C        -4.055065        -0.805636         2.832303
 O        -2.319881        -1.764275         1.645446
 H         1.607498        -1.600974         1.167726
 H         2.064816        -1.121343        -0.529012
 H         1.891076         0.089760         0.820660
 H        -2.777133        -0.788214        -1.244379
 H        -3.450836         1.635292        -1.170542
 H        -1.697848         2.032491        -0.581809
 H        -2.053233         1.397256        -2.096896
 H        -3.854081         0.221195         3.143418
 H        -5.092083        -1.184219         2.652968
 H        -3.693957        -1.562129         3.571648
