19
Iteration:   580charge 0 multiplicity 1
 C         1.799190         0.502612         0.092898
 C         0.336634         0.314997         0.045804
 C        -0.809985        -0.053539         0.054189
 C        -2.232846        -0.267610        -0.273786
 C        -2.859176         0.833203        -1.182207
 O        -2.817015        -0.350253         1.002481
 C        -3.372472        -1.471547         1.562604
 C        -3.760961        -1.119604         3.063085
 O        -3.350554        -2.502710         1.012753
 H         2.161608        -0.445000         0.448612
 H         2.156988         0.578961        -0.923725
 H         2.054732         1.427563         0.831137
 H        -2.386326        -1.187208        -0.770023
 H        -2.545881         1.860073        -0.836042
 H        -2.509275         0.542733        -2.172680
 H        -3.934464         0.820417        -1.242049
 H        -4.385649        -0.212795         3.102391
 H        -4.381401        -1.847357         3.594076
 H        -2.849064        -1.109518         3.691522
