19
Iteration:  1525charge 0 multiplicity 1
 C         1.817227         0.315307         0.052614
 C         0.493748        -0.243917        -0.061921
 C        -0.705225        -0.152067        -0.118835
 C        -2.147982        -0.250936        -0.271997
 C        -2.701402         0.932428        -1.020193
 O        -2.707485        -0.292609         1.104644
 C        -3.488644        -1.329289         1.580300
 C        -3.946099        -0.862649         3.018990
 O        -3.642180        -2.388693         1.039601
 H         1.657054         1.197868         0.518156
 H         2.558853        -0.228606         0.667811
 H         2.174966         0.635847        -0.998518
 H        -2.389544        -1.260104        -0.770189
 H        -2.361460         1.845920        -0.654464
 H        -2.244726         0.808412        -2.058550
 H        -3.713491         0.726387        -1.057343
 H        -3.121748        -0.242007         3.428664
 H        -4.834316        -0.186834         3.023628
 H        -4.090146        -1.665937         3.764341
