19
Iteration:  4915
 C         1.906175        -0.773776        -0.347868
 C         0.460519        -0.708228        -0.361973
 C        -0.728492        -0.405972        -0.293378
 C        -2.174872        -0.109154        -0.228451
 C        -2.399040         1.293461        -0.836697
 O        -2.678745         0.055732         1.160815
 C        -3.495807        -1.062723         1.729873
 C        -4.069883        -0.526613         3.063533
 O        -3.845412        -2.131070         1.363637
 H         2.411189        -0.757805        -1.355640
 H         2.522457        -0.134937         0.287125
 H         2.164535        -1.841245         0.128469
 H        -2.835141        -0.767178        -0.813815
 H        -3.372151         1.325302        -1.425220
 H        -2.491932         2.143721        -0.082471
 H        -1.593932         1.547225        -1.447884
 H        -4.882403        -1.282573         3.289376
 H        -3.172095        -0.390416         3.734278
 H        -4.454165         0.533878         2.923088
