19
Iteration:  2395charge 0 multiplicity 1
 C         1.572351        -0.561223         0.457483
 C         0.269995        -0.443459        -0.211791
 C        -0.952611        -0.250518        -0.212925
 C        -2.373695        -0.020366        -0.302559
 C        -2.716845         1.143174        -1.164580
 O        -2.915439         0.130285         1.044850
 C        -3.248608        -1.164545         1.629682
 C        -3.915890        -0.912226         2.876383
 O        -2.795041        -2.192884         1.142538
 H         1.671871        -1.367561         1.017172
 H         2.506757        -0.533087        -0.135855
 H         1.601952         0.317718         1.178556
 H        -2.903764        -0.830458        -0.666095
 H        -2.026391         2.054647        -1.128078
 H        -2.711259         0.816258        -2.162804
 H        -3.787765         1.286276        -0.970410
 H        -4.963198        -0.797864         2.552424
 H        -3.884013        -1.826110         3.428328
 H        -3.829302         0.054874         3.343629
