19
Iteration:   586
 C         1.836695         0.478179         0.109556
 C         0.350666         0.330310         0.081522
 C        -0.838178         0.001910        -0.030180
 C        -2.214629        -0.211559        -0.275828
 C        -2.861650         0.818974        -1.187542
 O        -2.788253        -0.402665         1.036222
 C        -3.378088        -1.443011         1.596408
 C        -3.772289        -1.114437         3.066258
 O        -3.400554        -2.523140         1.001105
 H         2.367003        -0.475316         0.437035
 H         2.116851         0.808690        -0.962683
 H         2.048565         1.303790         0.746342
 H        -2.358596        -1.256403        -0.758116
 H        -2.715694         1.848383        -0.953555
 H        -2.460403         0.397880        -2.165518
 H        -3.975145         0.690002        -1.167103
 H        -4.417513        -0.231541         3.054738
 H        -4.293012        -2.002584         3.512299
 H        -2.857512        -0.950836         3.657609
