19
Iteration:   541
 C         1.723703         0.590562         0.084462
 C         0.368381         0.075804         0.023157
 C        -0.821603        -0.216657        -0.103629
 C        -2.313538        -0.293614        -0.217971
 C        -2.726767         0.884936        -1.093264
 O        -3.100103        -0.186410         0.935877
 C        -3.332928        -1.393034         1.598153
 C        -3.791921        -1.233332         3.077587
 O        -3.102284        -2.418082         1.056559
 H         2.258155        -0.020764         0.981046
 H         2.312217         0.356550        -0.836159
 H         1.876028         1.586692         0.305000
 H        -2.586134        -1.296833        -0.746698
 H        -2.523615         1.866538        -0.577779
 H        -2.080326         0.697186        -1.952286
 H        -3.830097         0.985313        -1.337296
 H        -3.801831        -0.155676         3.408112
 H        -4.761112        -1.856682         3.130764
 H        -2.988230        -1.819570         3.640016
