19
Iteration:   110
 C         1.789992         0.437508         0.308578
 C         0.308774         0.265180         0.135990
 C        -0.891224         0.251033        -0.172318
 C        -2.280081        -0.092627        -0.387270
 C        -3.017722         0.874083        -1.205218
 O        -2.853261        -0.301828         1.066202
 C        -3.227024        -1.493271         1.595969
 C        -3.723396        -1.388356         3.010541
 O        -3.184753        -2.560655         0.992686
 H         2.379927        -0.564204         0.507545
 H         2.199548         0.885172        -0.613395
 H         2.031126         1.032145         1.079789
 H        -2.418194        -1.107821        -0.795300
 H        -2.625434         1.821356        -1.157668
 H        -3.013129         0.622056        -2.249095
 H        -4.028225         0.817551        -0.957154
 H        -4.585099        -2.026881         3.141278
 H        -2.966472        -1.895567         3.652627
 H        -3.968280        -0.375639         3.331045
