19
Iteration:  4068charge 0 multiplicity 1
 C         1.454064        -1.002706         0.519289
 C        -0.005866        -0.767924         0.115898
 C        -1.121207        -0.439790        -0.330792
 C        -2.534053         0.114714        -0.530863
 C        -2.482925         1.642482        -0.978363
 O        -3.170168         0.093463         0.758688
 C        -3.073007        -1.099385         1.550362
 C        -3.265174        -0.706793         3.013214
 O        -2.989460        -2.190155         1.149899
 H         1.612826        -2.020250         0.159094
 H         2.206725        -0.263138         0.141737
 H         1.626489        -1.041931         1.649129
 H        -3.240208        -0.416841        -1.158390
 H        -3.397949         2.077244        -0.732383
 H        -1.565111         2.131805        -0.571017
 H        -2.471424         1.727916        -2.076397
 H        -2.705620         0.240022         3.190201
 H        -4.333442        -0.570131         3.218736
 H        -2.945229        -1.550180         3.641147
