19
Iteration:  2128charge 0 multiplicity 1
 C         1.666296        -0.429466         0.289956
 C         0.254765        -0.248909         0.071366
 C        -0.939020        -0.335719        -0.157404
 C        -2.376971        -0.162175        -0.349434
 C        -2.825758         1.094084        -1.194339
 O        -2.852839         0.077824         1.073459
 C        -3.123420        -1.150284         1.648211
 C        -4.075188        -0.829027         2.757435
 O        -2.832561        -2.278904         1.176784
 H         2.127858         0.581813         0.493830
 H         1.925300        -1.148689         1.068509
 H         2.141903        -0.733851        -0.727073
 H        -2.802263        -1.104292        -0.576576
 H        -2.355657         1.971130        -0.608548
 H        -2.523240         0.932411        -2.247049
 H        -3.836916         1.334405        -0.993878
 H        -3.535856        -1.049072         3.732315
 H        -4.218849         0.249971         2.617349
 H        -5.002094        -1.420590         2.770603
