19
Iteration:  2999charge 0 multiplicity 1
 C         1.918607        -0.234884         0.167939
 C         0.540892        -0.211188        -0.066473
 C        -0.643088        -0.408620        -0.042314
 C        -2.094594        -0.366071        -0.276712
 C        -2.487018         0.750104        -1.245323
 O        -2.734103        -0.105871         1.062361
 C        -3.581763        -1.064854         1.632823
 C        -3.739727        -0.714195         3.054045
 O        -4.165556        -1.946007         1.027525
 H         2.062539         0.323387         1.210194
 H         2.312796        -1.257682         0.141228
 H         2.420548         0.525599        -0.370471
 H        -2.603203        -1.304450        -0.507588
 H        -3.512864         0.491934        -1.687244
 H        -2.374432         1.664298        -0.737628
 H        -1.742677         0.682159        -2.003999
 H        -2.761061        -0.676706         3.523431
 H        -4.018709         0.321283         3.018409
 H        -4.467792        -1.282183         3.603515
