19
Iteration:  1901
 C         2.045979         0.282865         0.111578
 C         0.581353         0.102161         0.013946
 C        -0.602344        -0.220594        -0.287973
 C        -2.038156        -0.523766        -0.292656
 C        -2.841758         0.478966        -1.018266
 O        -2.471952        -0.405789         1.162558
 C        -3.535545        -1.140953         1.622992
 C        -3.981442        -0.718717         2.950003
 O        -4.124470        -2.025445         1.025664
 H         2.342971         0.171581        -0.883780
 H         2.384842         1.231531         0.358360
 H         2.678298        -0.539555         0.630922
 H        -2.241322        -1.599989        -0.542974
 H        -2.782666         1.382215        -0.375110
 H        -2.261097         0.692328        -1.881577
 H        -3.790013         0.087226        -1.198821
 H        -3.930829         0.374408         3.144809
 H        -4.980207        -1.096009         3.081694
 H        -3.519529        -1.267695         3.777272
