19
Iteration:  1298
 C         1.542738        -0.389862         0.493685
 C         0.124307        -0.163055         0.086670
 C        -1.020777        -0.345679        -0.329504
 C        -2.549172        -0.063851        -0.445736
 C        -2.943638         1.205760        -1.095902
 O        -3.269056        -0.034780         0.807405
 C        -3.028785        -1.157784         1.567810
 C        -3.832920        -1.217766         2.818035
 O        -2.192531        -2.060150         1.360302
 H         2.195034        -0.434695        -0.488343
 H         1.898303         0.438466         0.986994
 H         1.685529        -1.251099         1.112901
 H        -2.942576        -0.959268        -0.923071
 H        -2.292026         1.920763        -0.646180
 H        -2.724571         1.250596        -2.250828
 H        -3.960837         1.399000        -0.926953
 H        -4.883719        -1.035867         2.639992
 H        -3.719319        -2.068775         3.428789
 H        -3.445139        -0.487871         3.557553
