19
Iteration:   907charge 0 multiplicity 1
 C         1.979550         0.821234        -0.209569
 C         0.559704         0.450695        -0.175456
 C        -0.528709        -0.004316         0.161380
 C        -1.860428        -0.483202         0.000121
 C        -2.813705         0.260569        -0.920586
 O        -2.371094        -0.682780         1.432198
 C        -3.623285        -1.347916         1.497853
 C        -4.017606        -1.161450         2.927544
 O        -4.270762        -1.925955         0.687124
 H         2.051960         1.802637         0.113717
 H         2.628440         0.023202         0.402472
 H         2.279031         0.733683        -1.292367
 H        -1.708039        -1.557165        -0.419461
 H        -2.762423         1.376973        -0.742786
 H        -2.521635        -0.080850        -1.914945
 H        -3.874220        -0.090840        -0.816153
 H        -4.003408        -0.100016         2.888090
 H        -4.913782        -1.733259         3.122953
 H        -3.357816        -1.405481         3.698245
