19
Iteration:   509charge 0 multiplicity 1
 C         1.588409         0.508669         0.080326
 C         0.264215        -0.091581         0.062789
 C        -0.934856        -0.217350        -0.049247
 C        -2.275412        -0.135995        -0.392861
 C        -2.742739         1.045812        -1.223654
 O        -3.029887        -0.126761         1.059663
 C        -3.172418        -1.394089         1.677689
 C        -3.840223        -1.290081         2.974018
 O        -2.913329        -2.497299         1.174918
 H         1.966005         0.290377         1.149468
 H         2.253415        -0.088905        -0.607089
 H         1.506445         1.570948        -0.151951
 H        -2.596243        -1.190192        -0.759801
 H        -2.720174         2.003500        -0.634170
 H        -2.009721         1.032142        -2.035916
 H        -3.725924         0.807094        -1.740726
 H        -3.823401        -0.303683         3.459624
 H        -4.934778        -1.448380         2.770626
 H        -3.552608        -2.147262         3.574103
