19
Iteration:  3676
 C         2.049044         0.136419        -0.182124
 C         0.644126        -0.171266        -0.067359
 C        -0.514485        -0.431540         0.014790
 C        -1.934952        -0.754716        -0.068717
 C        -2.616510         0.038373        -1.305778
 O        -2.390209        -0.569737         1.355974
 C        -3.694850        -0.811414         1.686119
 C        -3.931840        -0.838896         3.183061
 O        -4.585935        -0.871609         0.797051
 H         2.380423        -0.267015        -1.166530
 H         2.295757         1.234512        -0.339657
 H         2.848062        -0.331957         0.484540
 H        -1.877385        -1.802609        -0.117362
 H        -3.430259        -0.597541        -1.612450
 H        -2.872454         1.010995        -1.113087
 H        -2.023625         0.001982        -2.223223
 H        -4.839751        -0.377463         3.526137
 H        -3.883496        -1.817573         3.667744
 H        -3.107438        -0.305838         3.652417
