19
Iteration:   809
 C         1.658118         1.098842        -0.161333
 C         0.603785         0.117883        -0.089314
 C        -0.532013        -0.329435        -0.028054
 C        -1.920839        -0.664068        -0.058859
 C        -2.582290         0.338239        -0.947073
 O        -2.426496        -0.564034         1.331950
 C        -3.601572        -1.220887         1.510904
 C        -3.958036        -1.255723         3.178650
 O        -4.162654        -1.800927         0.641881
 H         1.305304         1.772160        -0.830673
 H         1.886268         1.602665         0.838623
 H         2.631099         0.626155        -0.589143
 H        -2.127043        -1.701447        -0.523790
 H        -2.729784         1.257961        -0.249068
 H        -1.950746         0.650646        -1.754792
 H        -3.463983        -0.132284        -1.476943
 H        -3.055906        -1.283170         3.733487
 H        -4.484301        -0.327460         3.398205
 H        -4.691397        -1.994530         3.330061
