19
Iteration:  2731
 C         2.090544         0.077091        -0.164532
 C         0.617862        -0.268821        -0.179081
 C        -0.566978        -0.295915         0.035473
 C        -1.945608        -0.487741        -0.041855
 C        -2.583403         0.396608        -1.061826
 O        -2.443732        -0.267945         1.372908
 C        -3.669421        -1.010753         1.671044
 C        -4.179139        -0.830949         3.002388
 O        -4.248328        -1.583512         0.756122
 H         2.206240         1.026706        -0.821492
 H         2.383231         0.216339         0.810101
 H         2.645900        -0.659223        -0.587186
 H        -2.097478        -1.521662        -0.381361
 H        -3.689976         0.569114        -0.711186
 H        -2.217900         1.377900        -1.212207
 H        -2.559734        -0.204730        -1.933664
 H        -4.956662        -0.011022         2.960845
 H        -4.568771        -1.816471         3.297899
 H        -3.344150        -0.635735         3.698394
