19
Iteration:  4660charge 0 multiplicity 1
 C         1.968504        -0.224573        -0.108697
 C         0.539292        -0.501051        -0.351032
 C        -0.650135        -0.731589        -0.353343
 C        -2.092406        -0.717455        -0.273613
 C        -2.594766         0.638878        -0.738703
 O        -2.343361        -0.665331         1.226262
 C        -3.598864        -0.679206         1.699736
 C        -3.695944        -0.623913         3.177846
 O        -4.488027        -0.930724         0.925764
 H         1.992404         0.807888         0.117684
 H         2.450791        -0.674759         0.768686
 H         2.588485        -0.573737        -0.927288
 H        -2.680519        -1.483561        -0.653985
 H        -3.622195         0.679698        -0.371789
 H        -2.045568         1.475575        -0.382403
 H        -2.606266         0.756124        -1.851450
 H        -2.773145        -0.715925         3.742873
 H        -4.187900         0.374349         3.277671
 H        -4.436281        -1.372481         3.530543
