19
Iteration:  4514
 C         2.045475        -0.606977        -0.312008
 C         0.670176        -0.422213        -0.097794
 C        -0.556690        -0.229992        -0.068407
 C        -1.999603        -0.395055        -0.120557
 C        -2.800248         0.539709        -1.044899
 O        -2.386891        -0.407353         1.341513
 C        -3.637839        -0.875383         1.654585
 C        -3.728815        -0.736839         3.131929
 O        -4.541946        -1.105868         0.906249
 H         2.808699        -0.227513         0.467652
 H         2.266725        -1.743015        -0.496038
 H         2.277937        -0.089523        -1.264764
 H        -2.260826        -1.424351        -0.463839
 H        -3.871754         0.189722        -0.960841
 H        -2.579977         1.675473        -0.915627
 H        -2.524399         0.276750        -2.041323
 H        -2.832367        -1.216350         3.572879
 H        -3.773292         0.365464         3.305212
 H        -4.675573        -1.184834         3.447320
