19
Iteration:  4799charge 0 multiplicity 1
 C         2.033686        -0.696028        -0.525956
 C         0.573560        -0.563322        -0.444236
 C        -0.570237        -0.408284        -0.009656
 C        -2.041318        -0.280290         0.038080
 C        -2.522588         0.725260        -0.942230
 O        -2.530104         0.039239         1.348336
 C        -3.629864        -0.789880         1.676174
 C        -4.045172        -0.766899         3.163704
 O        -4.201193        -1.534799         0.982139
 H         2.233503         0.263757        -1.047052
 H         2.344284        -0.530910         0.539469
 H         2.476069        -1.621336        -0.831186
 H        -2.380899        -1.350329        -0.236637
 H        -3.632928         0.692358        -0.711682
 H        -2.030502         1.733239        -0.803626
 H        -2.262012         0.371798        -1.938069
 H        -3.627581        -1.650441         3.602635
 H        -4.007671         0.127087         3.776048
 H        -5.096384        -1.065836         3.215724
