19
Iteration:  3579
 C         1.863358        -0.089086         0.322246
 C         0.538613        -0.328801        -0.030482
 C        -0.630242        -0.371197        -0.334121
 C        -2.028237        -0.607522        -0.322543
 C        -2.865571         0.281592        -1.224557
 O        -2.291455        -0.338151         1.173697
 C        -3.465309        -0.835385         1.658044
 C        -3.690888        -0.628764         3.080314
 O        -4.377339        -1.390216         0.953450
 H         2.489758        -0.481454        -0.468971
 H         2.082975         0.977978         0.215333
 H         2.292829        -0.369123         1.293945
 H        -2.485181        -1.631813        -0.556734
 H        -3.974890         0.044235        -1.017964
 H        -2.645806         1.365186        -1.170161
 H        -2.694026        -0.002709        -2.320358
 H        -4.487587         0.076864         3.328403
 H        -3.883976        -1.531985         3.681726
 H        -2.760644        -0.168916         3.507848
