19
Iteration:  4512charge 0 multiplicity 1
 C         2.066932        -0.621559        -0.323507
 C         0.658715        -0.416313        -0.094599
 C        -0.544156        -0.219321        -0.069676
 C        -1.990705        -0.398728        -0.099583
 C        -2.830100         0.545463        -1.020202
 O        -2.384066        -0.397374         1.335123
 C        -3.646170        -0.887167         1.634163
 C        -3.727023        -0.727320         3.128929
 O        -4.530891        -1.109983         0.899976
 H         2.823464        -0.254883         0.480460
 H         2.178276        -1.764039        -0.450980
 H         2.305159        -0.058031        -1.265594
 H        -2.340106        -1.474042        -0.447763
 H        -3.819976         0.169145        -0.982682
 H        -2.639544         1.624894        -0.960527
 H        -2.522394         0.271845        -2.014670
 H        -2.851806        -1.199349         3.578605
 H        -3.779107         0.351815         3.357878
 H        -4.679986        -1.160124         3.405856
