19
Iteration:  2276
 C         1.600656        -0.758975         0.254132
 C         0.255744        -0.309760         0.080845
 C        -0.973990        -0.108889         0.035724
 C        -2.411841         0.000814        -0.449858
 C        -2.675582         1.406524        -1.101366
 O        -3.418233        -0.228783         0.545753
 C        -3.185014        -1.152927         1.496729
 C        -3.860154        -0.815215         2.884473
 O        -2.465082        -2.179019         1.564239
 H         1.762929        -0.959896         1.358545
 H         1.544332        -1.784135        -0.239012
 H         2.441240        -0.123161        -0.161272
 H        -2.555915        -0.723708        -1.284797
 H        -2.716446         2.008133        -0.125610
 H        -1.980015         1.779928        -1.746059
 H        -3.671603         1.289620        -1.501084
 H        -3.978071         0.184055         3.263786
 H        -4.739343        -1.429416         3.041207
 H        -3.060531        -1.196513         3.542690
