19
Iteration:  1925
 C         1.905169         0.209403         0.095035
 C         0.491988         0.115020        -0.094756
 C        -0.594220        -0.340971        -0.246929
 C        -2.032092        -0.471845        -0.223071
 C        -2.705373         0.592335        -1.156789
 O        -2.555042        -0.281935         1.205204
 C        -3.562191        -1.179169         1.664195
 C        -4.016600        -0.770392         3.068973
 O        -3.934316        -2.051981         0.965225
 H         2.546606         0.272721        -0.863514
 H         2.245870         1.030832         0.739636
 H         2.202721        -0.739235         0.534774
 H        -2.291042        -1.555349        -0.353578
 H        -2.537264         1.517792        -0.723036
 H        -2.106974         0.556006        -2.148424
 H        -3.708286         0.226923        -1.262065
 H        -4.412034         0.250561         3.154465
 H        -4.752517        -1.489501         3.395978
 H        -3.301055        -0.921391         3.835186
