19
Iteration:   508
 C         1.589398         0.509285         0.075255
 C         0.256314        -0.092921         0.064425
 C        -0.938933        -0.215080        -0.055237
 C        -2.282425        -0.133151        -0.380070
 C        -2.744876         1.043637        -1.222376
 O        -3.026030        -0.129272         1.052654
 C        -3.163170        -1.400413         1.678911
 C        -3.841296        -1.283615         2.962188
 O        -2.909136        -2.493930         1.177625
 H         1.973822         0.288764         1.192286
 H         2.247389        -0.084643        -0.581796
 H         1.515796         1.514042        -0.149724
 H        -2.592168        -1.194981        -0.736089
 H        -2.695513         2.025177        -0.634335
 H        -2.013826         1.053021        -2.017654
 H        -3.717076         0.797938        -1.744900
 H        -3.829317        -0.289805         3.500047
 H        -4.960767        -1.444607         2.757942
 H        -3.550548        -2.180992         3.577766
