19
Iteration:  2941charge 0 multiplicity 1
 C         1.994125         0.187764         0.009203
 C         0.656168        -0.404623         0.065762
 C        -0.538698        -0.590183        -0.189807
 C        -2.065828        -0.543865        -0.231118
 C        -2.592783         0.589975        -0.999820
 O        -2.416536        -0.400566         1.183848
 C        -3.594218        -1.010769         1.573118
 C        -3.936871        -0.659236         3.032694
 O        -4.427078        -1.583580         0.884102
 H         1.991951         0.975481         0.896061
 H         2.845391        -0.415401         0.266811
 H         2.243353         0.606673        -0.912443
 H        -2.690154        -1.400537        -0.513272
 H        -3.616892         0.747366        -0.976026
 H        -2.141914         1.598885        -0.787368
 H        -2.325404         0.360203        -2.085015
 H        -3.337901        -1.399331         3.618513
 H        -3.661124         0.384774         3.308572
 H        -4.984129        -0.886060         3.292676
