19
Iteration:   699
 C         2.019291         0.693886         0.082496
 C         0.538944         0.353324         0.005318
 C        -0.662506         0.131699        -0.137932
 C        -2.020008        -0.498057        -0.252854
 C        -3.103580         0.303888        -1.102511
 O        -2.406480        -0.462576         1.283460
 C        -3.446287        -1.319827         1.612523
 C        -3.937505        -1.247043         3.053775
 O        -3.960204        -2.047931         0.770998
 H         2.553926         0.383173        -0.717916
 H         2.214767         1.808497         0.133661
 H         2.491044         0.231010         1.014107
 H        -1.981048        -1.592205        -0.530936
 H        -3.049578         1.408428        -0.815000
 H        -2.929976         0.193323        -2.167787
 H        -4.162673         0.024847        -0.918785
 H        -4.442207        -2.120065         3.278878
 H        -3.116658        -1.151893         3.675257
 H        -4.467122        -0.372397         3.361867
