19
Iteration:  2264charge 0 multiplicity 1
 C         1.590312        -0.794207         0.221012
 C         0.187480        -0.238425         0.216282
 C        -1.014778        -0.156235        -0.001491
 C        -2.348607        -0.055223        -0.515840
 C        -2.704340         1.426027        -1.040949
 O        -3.393279        -0.262469         0.525893
 C        -3.139362        -1.133759         1.623932
 C        -3.813666        -0.814418         2.890775
 O        -2.499752        -2.149427         1.498737
 H         2.040854        -0.867055         1.199342
 H         1.705781        -1.801212        -0.270606
 H         2.298121        -0.083290        -0.417337
 H        -2.453864        -0.910100        -1.184210
 H        -2.796931         2.213013        -0.263898
 H        -1.898515         1.727075        -1.673373
 H        -3.598307         1.521335        -1.703256
 H        -4.052486         0.226634         2.919356
 H        -4.810959        -1.285174         2.840272
 H        -3.318920        -1.299922         3.756782
