19
Iteration:  1754
 C         1.941001         0.695678        -0.336901
 C         0.779825        -0.072749        -0.021753
 C        -0.401550        -0.436627         0.158458
 C        -1.822829        -0.658699         0.009501
 C        -2.646259         0.265735        -1.071354
 O        -2.565661        -0.405930         1.288387
 C        -3.735624        -1.049695         1.553353
 C        -3.953436        -1.100889         3.098918
 O        -4.451748        -1.558424         0.759429
 H         2.929354         0.272805        -0.302952
 H         1.735162         1.245655        -1.343387
 H         2.049284         1.503483         0.439955
 H        -1.930395        -1.680966        -0.353427
 H        -2.529385         1.240116        -0.691046
 H        -2.217527         0.065793        -2.139746
 H        -3.716958         0.006771        -0.964401
 H        -4.317647        -2.158427         3.324602
 H        -3.045449        -0.800506         3.691953
 H        -4.725273        -0.314970         3.215185
