19
Iteration:   490charge 0 multiplicity 1
 C         1.637028         0.385735         0.157273
 C         0.234223        -0.024832         0.051052
 C        -0.952114        -0.148802        -0.150866
 C        -2.428432        -0.224713        -0.295725
 C        -2.780401         1.021867        -1.120288
 O        -3.012410        -0.185716         1.038730
 C        -3.116770        -1.359016         1.630765
 C        -3.919859        -1.234012         2.912031
 O        -2.751669        -2.450544         1.168377
 H         1.971422         0.502814         1.094275
 H         2.320934        -0.329669        -0.428613
 H         1.636681         1.469586        -0.447719
 H        -2.842458        -1.067843        -0.810827
 H        -2.812402         1.875332        -0.519280
 H        -2.026757         0.903123        -1.956694
 H        -3.784265         0.988735        -1.570943
 H        -3.656146        -0.320974         3.357381
 H        -4.927193        -1.090357         2.628947
 H        -3.818578        -2.102327         3.456191
