19
Iteration:  3366charge 0 multiplicity 1
 C         1.764051        -0.942833        -0.050454
 C         0.421601        -0.375979         0.000070
 C        -0.786815        -0.196620        -0.063659
 C        -2.284246        -0.163779        -0.243927
 C        -2.627604         0.916187        -1.220986
 O        -3.055287         0.246350         1.057649
 C        -3.372707        -0.953994         1.642024
 C        -4.432658        -0.717141         2.657116
 O        -2.705356        -2.019617         1.555293
 H         1.591065        -1.952297        -0.254485
 H         2.565516        -0.563360        -0.718209
 H         2.207065        -0.605610         0.898456
 H        -2.445750        -1.254690        -0.307366
 H        -3.707259         0.865442        -1.315193
 H        -2.163269         1.965654        -0.970725
 H        -2.247126         0.661487        -2.267112
 H        -4.981733         0.141538         2.309981
 H        -4.994932        -1.588952         2.930249
 H        -3.911586        -0.406115         3.584920
