19
Iteration:  1181charge 0 multiplicity 1
 C         1.631336        -0.186540         0.389078
 C         0.180428        -0.043903         0.133664
 C        -0.982006        -0.096524        -0.206603
 C        -2.469928        -0.080385        -0.326850
 C        -3.002917         1.070904        -1.198416
 O        -3.050214        -0.125850         0.938401
 C        -3.072238        -1.326159         1.565695
 C        -3.767693        -1.031224         2.899393
 O        -2.612331        -2.351571         1.177687
 H         1.836165        -1.191416         0.211044
 H         2.305345         0.488708        -0.338353
 H         1.854562         0.073372         1.406149
 H        -2.810359        -0.980986        -0.868513
 H        -3.368422         1.825479        -0.579474
 H        -2.144857         1.534128        -1.850306
 H        -3.687095         0.609484        -1.871388
 H        -2.966183        -0.350805         3.285395
 H        -4.608927        -0.364798         2.596958
 H        -4.093512        -2.024594         3.401366
