19
Iteration:  2303
 C         1.570062        -0.741963         0.349418
 C         0.251984        -0.427446        -0.059709
 C        -0.929226        -0.071453        -0.083804
 C        -2.408433        -0.049390        -0.364279
 C        -2.719120         1.376144        -1.099483
 O        -3.323239        -0.186568         0.716149
 C        -3.119396        -1.155976         1.585175
 C        -3.963383        -0.825470         2.924148
 O        -2.443953        -2.133175         1.341666
 H         1.489815        -1.016511         1.430483
 H         1.918989        -1.595577        -0.187085
 H         2.222350         0.101690         0.262331
 H        -2.603266        -0.891549        -1.076174
 H        -2.481389         2.044972        -0.317848
 H        -2.133492         1.687056        -2.057399
 H        -3.811446         1.267246        -1.303292
 H        -4.435032         0.182005         2.788818
 H        -4.792618        -1.567377         2.987526
 H        -3.368284        -0.692516         3.844061
