19
Iteration:  4450charge 0 multiplicity 1
 C         2.025809        -0.810418        -0.312189
 C         0.586002        -0.397247        -0.417843
 C        -0.578631        -0.223025        -0.201218
 C        -2.060923        -0.296200         0.025603
 C        -2.771870         0.749399        -0.931318
 O        -2.370820        -0.197264         1.420627
 C        -3.546156        -0.904950         1.720053
 C        -4.108301        -0.615722         3.068578
 O        -4.111151        -1.528709         0.919849
 H         2.389952        -0.816318         0.696593
 H         2.290357        -1.725335        -0.815331
 H         2.601425        -0.186671        -0.945922
 H        -2.452075        -1.198319        -0.306974
 H        -3.804244         0.387202        -1.291767
 H        -3.113016         1.741878        -0.422852
 H        -2.101160         0.854349        -1.779759
 H        -3.802003        -1.324749         3.878606
 H        -3.767074         0.379617         3.430318
 H        -5.179434        -0.836605         3.014196
