19
Iteration:  3180charge 0 multiplicity 1
 C         1.546681        -0.850674         0.413422
 C         0.106594        -0.606307         0.109208
 C        -1.059000        -0.417717        -0.168024
 C        -2.463794        -0.111489        -0.597036
 C        -2.532650         1.367365        -1.098523
 O        -3.260575        -0.065641         0.675104
 C        -3.101291        -1.014091         1.654969
 C        -4.086719        -0.638067         2.755982
 O        -2.341347        -1.971815         1.574264
 H         1.634729        -1.543030         1.202857
 H         2.022835        -1.339452        -0.480631
 H         2.167131         0.080992         0.634443
 H        -2.908493        -0.902488        -1.167452
 H        -3.517288         1.499615        -1.270325
 H        -1.960442         1.953749        -0.377636
 H        -2.002759         1.649817        -2.061953
 H        -3.685575         0.330881         3.092539
 H        -5.079561        -0.790369         2.421929
 H        -4.039202        -1.427521         3.499485
