19
Iteration:  2810charge 0 multiplicity 1
 C         2.115007         0.200328        -0.449734
 C         0.728167        -0.215386         0.031962
 C        -0.470098        -0.329047         0.286059
 C        -1.833424        -0.643575         0.068413
 C        -2.524372         0.208631        -0.993713
 O        -2.565138        -0.516854         1.335829
 C        -3.819631        -0.892091         1.533791
 C        -3.939981        -0.821992         3.076653
 O        -4.610808        -1.276149         0.637609
 H         2.079635         1.282119        -0.663530
 H         2.791432        -0.130880         0.285420
 H         2.321364        -0.123863        -1.425290
 H        -1.765623        -1.680369        -0.354153
 H        -3.061562        -0.345951        -1.734437
 H        -2.855521         1.155403        -0.515251
 H        -1.778034         0.714911        -1.649702
 H        -4.793566        -1.438771         3.257402
 H        -3.126849        -1.385394         3.565593
 H        -4.190122         0.231910         3.346524
