19
Iteration:   819
 C         1.639389         1.065575        -0.197205
 C         0.589898         0.120574        -0.109766
 C        -0.532388        -0.309726         0.042111
 C        -1.856964        -0.730957        -0.053774
 C        -2.624101         0.333693        -0.935916
 O        -2.452871        -0.576985         1.350614
 C        -3.589115        -1.206237         1.552038
 C        -3.950381        -1.204002         3.110819
 O        -4.151050        -1.777163         0.581135
 H         1.383762         1.943276        -0.680296
 H         1.967826         1.467864         0.885306
 H         2.596425         0.775878        -0.651666
 H        -1.928836        -1.869355        -0.257599
 H        -2.825156         1.205565        -0.207875
 H        -2.045588         0.649714        -1.742841
 H        -3.704862         0.068955        -1.125312
 H        -3.029559        -1.177151         3.586293
 H        -4.593811        -0.416970         3.358793
 H        -4.375680        -2.158859         3.338792
