19
Iteration:  3240charge 0 multiplicity 1
 C         1.497670        -0.850993         0.325160
 C         0.140214        -0.630470        -0.078022
 C        -1.062863        -0.510696        -0.157272
 C        -2.440425        -0.113512        -0.494419
 C        -2.296097         1.322161        -1.030940
 O        -3.430748        -0.091864         0.596547
 C        -3.140201        -0.958145         1.679815
 C        -4.195267        -0.824406         2.812485
 O        -2.218692        -1.703417         1.638945
 H         1.508664        -1.848639         0.921889
 H         2.234218        -0.955910        -0.468697
 H         1.813741        -0.057315         0.997589
 H        -2.693519        -0.869268        -1.298655
 H        -3.349273         1.736949        -1.142611
 H        -1.966780         2.019277        -0.345782
 H        -1.815731         1.293383        -1.939635
 H        -4.483403         0.227478         2.899416
 H        -5.206610        -1.204861         2.495933
 H        -3.766384        -1.156812         3.751220
