19
Iteration:  1520charge 0 multiplicity 1
 C         1.814544         0.303064         0.055097
 C         0.488508        -0.253652        -0.063622
 C        -0.725631        -0.178744        -0.078849
 C        -2.171226        -0.256181        -0.237627
 C        -2.697230         0.902739        -1.038327
 O        -2.741879        -0.272669         1.113413
 C        -3.454662        -1.343046         1.594520
 C        -3.923919        -0.874380         2.971251
 O        -3.602294        -2.363150         1.020144
 H         1.646536         1.419291         0.495386
 H         2.621639        -0.259887         0.591190
 H         2.181577         0.484491        -0.918152
 H        -2.527899        -1.106633        -0.771654
 H        -2.459634         1.949421        -0.593525
 H        -2.236698         0.773931        -1.986561
 H        -3.871485         0.927309        -1.193977
 H        -3.128835        -0.252866         3.400746
 H        -4.677215        -0.082972         2.996652
 H        -4.104080        -1.643328         3.733224
