19
Iteration:  3472
 C         1.925535        -0.303109         0.085386
 C         0.460012        -0.304588         0.025060
 C        -0.723957        -0.517573        -0.120156
 C        -2.250465        -0.330184        -0.359295
 C        -2.433993         0.871009        -1.219183
 O        -2.785564        -0.131913         0.931866
 C        -3.501364        -1.037059         1.646912
 C        -3.873724        -0.413086         2.966820
 O        -3.838573        -2.125327         1.360530
 H         2.264678        -1.279616        -0.461992
 H         2.434291         0.620134        -0.346441
 H         2.208383        -0.565186         1.139680
 H        -2.651130        -1.326875        -0.730099
 H        -3.526009         0.913053        -1.278184
 H        -2.138348         1.815560        -0.692676
 H        -2.039459         0.710174        -2.272410
 H        -4.740724         0.269969         2.869583
 H        -4.122759        -1.184523         3.701766
 H        -3.038217         0.211363         3.410735
