19
Iteration:   316charge 0 multiplicity 1
 C         1.491508        -0.114351         0.358309
 C         0.069883        -0.111100         0.093938
 C        -1.117250         0.076251        -0.084845
 C        -2.488798         0.046622        -0.419634
 C        -3.028688         1.153723        -1.255349
 O        -3.256365        -0.201988         0.783939
 C        -2.923329        -1.293098         1.611931
 C        -3.861386        -1.494156         2.906717
 O        -2.065102        -2.159396         1.378478
 H         1.990923         0.661693        -0.148200
 H         1.687558        -0.102935         1.460462
 H         1.840124        -1.130421        -0.034880
 H        -2.620765        -0.813433        -1.120185
 H        -2.877799         2.144563        -0.799753
 H        -2.403413         1.129915        -2.151331
 H        -4.144752         0.926793        -1.448778
 H        -3.580179        -2.465391         3.280044
 H        -3.627098        -0.660360         3.547539
 H        -4.892902        -1.409954         2.607554
