19
Iteration:   423charge 0 multiplicity 1
 C         1.626376         0.019168         0.285188
 C         0.237091         0.015989        -0.033457
 C        -0.956687         0.232819        -0.206598
 C        -2.384200        -0.069297        -0.422482
 C        -3.079739         1.116720        -1.133024
 O        -3.073224        -0.224115         0.895635
 C        -3.087006        -1.503075         1.637432
 C        -4.065487        -1.270145         2.880611
 O        -2.351658        -2.432405         1.411966
 H         1.966363         0.719155         0.956938
 H         2.116035        -0.959796         0.532581
 H         2.245854         0.293371        -0.692441
 H        -2.441099        -1.012591        -0.993690
 H        -2.857671         2.158109        -0.838641
 H        -2.843468         0.951649        -2.192256
 H        -4.202788         1.194584        -1.005217
 H        -3.410324        -1.019526         3.683244
 H        -4.778235        -0.484839         2.704391
 H        -4.549860        -2.190955         3.156687
