19
Iteration:  1804
 C         1.921975         0.555588        -0.085335
 C         0.502870         0.198158        -0.185063
 C        -0.521231        -0.415344        -0.136152
 C        -1.959396        -0.715806        -0.081574
 C        -2.694266         0.261782        -0.983408
 O        -2.284850        -0.585760         1.374900
 C        -3.569106        -1.087574         1.652285
 C        -4.131628        -0.877751         3.048409
 O        -4.254159        -1.576380         0.741882
 H         2.641335        -0.281936        -0.514892
 H         2.124020         1.406450        -0.696769
 H         2.352840         0.692997         0.922943
 H        -2.254612        -1.633181        -0.629745
 H        -2.476142         1.267105        -0.508859
 H        -2.103086         0.203971        -1.914516
 H        -3.695798        -0.033587        -1.026238
 H        -3.494627        -1.471142         3.713949
 H        -3.986314         0.142318         3.334907
 H        -5.178655        -1.066067         3.020433
