19
Iteration:  3332charge 0 multiplicity 1
 C         1.748042        -0.998367         0.044816
 C         0.358269        -0.512235        -0.108467
 C        -0.830837        -0.149238        -0.046354
 C        -2.213099        -0.069886        -0.434602
 C        -2.748568         1.157645        -1.206673
 O        -3.064896         0.041435         0.893481
 C        -3.201708        -0.957629         1.744311
 C        -4.482980        -0.709421         2.633162
 O        -2.575040        -2.023206         1.790791
 H         1.808935        -2.056311         0.305483
 H         2.484191        -0.717484        -0.760865
 H         2.046334        -0.678334         1.049216
 H        -2.702876        -1.009439        -0.769577
 H        -3.808649         1.319800        -1.166028
 H        -2.420112         2.192839        -0.724742
 H        -2.398007         1.081715        -2.319727
 H        -5.034736         0.094816         2.137971
 H        -5.125768        -1.538396         2.455483
 H        -4.227689        -0.440423         3.671062
