19
Iteration:   413
 C         1.649493        -0.018442         0.250367
 C         0.155306        -0.006881         0.049714
 C        -0.996004         0.254068        -0.225723
 C        -2.377734         0.033319        -0.392689
 C        -3.100723         1.106058        -1.182330
 O        -3.040078        -0.303168         0.932486
 C        -3.085364        -1.443005         1.633557
 C        -4.030529        -1.314536         2.855339
 O        -2.320479        -2.380066         1.421553
 H         1.858130         0.682421         0.906084
 H         1.813390        -1.009345         0.771862
 H         2.193425         0.131788        -0.812262
 H        -2.503618        -0.736626        -1.071553
 H        -2.626401         2.006094        -0.822738
 H        -2.728280         0.996811        -2.243764
 H        -4.214512         0.873549        -1.235439
 H        -3.430759        -1.057741         3.680313
 H        -4.615348        -0.449017         2.681890
 H        -4.617817        -2.179806         2.951676
