19
Iteration:   224charge 0 multiplicity 1
 C         1.514788         0.240573         0.422600
 C         0.172707        -0.057792         0.037946
 C        -0.995138        -0.032781        -0.316246
 C        -2.443610        -0.105521        -0.462067
 C        -2.955537         1.221922        -1.077631
 O        -3.286007        -0.336790         0.857188
 C        -3.067367        -1.437812         1.623082
 C        -3.703241        -1.250706         2.896494
 O        -2.415775        -2.416775         1.276659
 H         2.280586        -0.032186        -0.374464
 H         1.718749         1.268431         0.743367
 H         1.929267        -0.557967         1.269248
 H        -2.554913        -1.030867        -1.024275
 H        -2.879353         2.064632        -0.270093
 H        -2.161313         1.594013        -1.880461
 H        -3.962925         1.147705        -1.635028
 H        -4.344589        -2.139692         3.140824
 H        -2.943778        -1.283889         3.707621
 H        -4.209159        -0.266031         3.004597
