19
Iteration:  4218
 C         1.190213        -1.581633         0.193192
 C         0.295912        -0.490295        -0.082310
 C        -0.838307        -0.049924        -0.176297
 C        -2.269200         0.124465        -0.427632
 C        -2.801822         1.411077        -1.103447
 O        -3.047366         0.212241         0.957126
 C        -3.062145        -0.963162         1.673202
 C        -3.939732        -0.813194         2.965451
 O        -2.533296        -1.983057         1.280216
 H         0.779852        -2.595602         0.333374
 H         1.970399        -1.554348        -0.566833
 H         1.713813        -1.405418         1.071127
 H        -2.684971        -0.789213        -0.872532
 H        -3.792885         1.563023        -0.667849
 H        -2.366077         2.416267        -0.860811
 H        -2.823647         1.120137        -2.191891
 H        -4.995150        -0.561220         2.720241
 H        -3.939370        -1.809855         3.432318
 H        -3.535371        -0.011470         3.618705
