19
Iteration:  2338charge 0 multiplicity 1
 C         1.522678        -0.656472         0.400684
 C         0.139559        -0.433725         0.140690
 C        -0.980492        -0.364676        -0.316748
 C        -2.399807        -0.048975        -0.374406
 C        -2.790078         1.277128        -1.162630
 O        -2.964574         0.115939         0.904800
 C        -3.142680        -1.093564         1.589164
 C        -4.003018        -0.979538         2.762983
 O        -2.514645        -2.103456         1.341922
 H         1.629963        -1.207590         1.249147
 H         1.934575        -1.221946        -0.413634
 H         2.198540         0.281673         0.482788
 H        -2.966738        -0.861111        -0.782913
 H        -2.508489         2.152821        -0.628295
 H        -2.567544         1.509796        -2.247470
 H        -3.902090         1.554139        -0.988299
 H        -4.853343        -0.311508         2.634913
 H        -4.269142        -2.030809         3.011520
 H        -3.253505        -0.802287         3.578064
