19
Iteration:  4266
 C         1.513538        -1.193331        -0.072898
 C         0.174289        -0.761166        -0.065133
 C        -0.966089        -0.282375        -0.152498
 C        -2.320977         0.155341        -0.328632
 C        -2.524920         1.428233        -1.107014
 O        -2.955858         0.180275         1.027926
 C        -3.235977        -1.018139         1.690784
 C        -4.045039        -0.681929         2.981286
 O        -2.764441        -2.104577         1.331489
 H         1.498310        -2.178883         0.399736
 H         1.979043        -1.252344        -1.082439
 H         2.225801        -0.657201         0.676815
 H        -2.817809        -0.702716        -0.949069
 H        -3.540713         1.712412        -0.966164
 H        -2.100730         2.243704        -0.564228
 H        -2.187490         1.325714        -2.092002
 H        -5.108927        -0.955666         2.898318
 H        -3.664587        -1.240290         3.849531
 H        -3.977043         0.403071         3.054739
