19
Iteration:  2754
 C         2.101598         0.143973        -0.300813
 C         0.660033        -0.175357        -0.090856
 C        -0.546586        -0.411249         0.042572
 C        -1.951229        -0.624933         0.080841
 C        -2.505867         0.370053        -1.193154
 O        -2.488449        -0.298693         1.392574
 C        -3.720073        -0.883108         1.668683
 C        -4.210758        -0.925025         3.086939
 O        -4.291401        -1.459230         0.726834
 H         2.325233         1.146193        -0.808736
 H         2.582116         0.089948         0.628366
 H         2.481555        -0.654217        -0.852791
 H        -2.221306        -1.617104        -0.296802
 H        -3.654250         0.322512        -1.358923
 H        -2.428072         1.383927        -0.828596
 H        -1.827606         0.114801        -1.954244
 H        -5.228250        -0.502095         3.152691
 H        -4.111246        -1.970355         3.427322
 H        -3.477768        -0.442215         3.776108
