19
Iteration:  1020charge 0 multiplicity 1
 C         1.919242         0.490880         0.040921
 C         0.506947         0.195495        -0.159137
 C        -0.672398        -0.052043        -0.024046
 C        -2.113384        -0.334888        -0.100284
 C        -2.833425         0.642998        -1.004671
 O        -2.791646        -0.232383         1.162386
 C        -3.456434        -1.374573         1.551227
 C        -3.895643        -1.106351         2.937428
 O        -3.674540        -2.385707         0.922733
 H         2.138131         0.452724         1.096420
 H         2.569428        -0.223842        -0.476910
 H         2.394177         1.550407        -0.306133
 H        -2.325141        -1.370865        -0.597719
 H        -2.646563         1.596378        -0.456020
 H        -2.442159         0.745240        -2.108206
 H        -3.895554         0.393910        -1.234790
 H        -4.879961        -1.490166         3.180077
 H        -3.203507        -1.595715         3.609087
 H        -3.812022        -0.057744         3.351732
