19
Iteration:  4885charge 0 multiplicity 1
 C         1.885491        -0.718235        -0.472350
 C         0.502776        -0.614425        -0.210180
 C        -0.697346        -0.500614        -0.070422
 C        -2.133947        -0.240396        -0.135564
 C        -2.422479         1.203154        -0.745541
 O        -2.753359        -0.104456         1.116473
 C        -3.569371        -0.987853         1.729679
 C        -3.964908        -0.356126         3.078322
 O        -3.877363        -2.057687         1.111740
 H         2.189153        -0.555986        -1.494107
 H         2.582483        -0.157066         0.140053
 H         2.213801        -1.757237        -0.479500
 H        -2.541233        -0.928175        -0.873710
 H        -3.552616         1.175716        -0.937649
 H        -2.072175         2.065899        -0.091808
 H        -2.038559         1.486403        -1.768842
 H        -4.321378        -1.129701         3.744800
 H        -3.019406         0.117982         3.409238
 H        -4.663041         0.500501         2.941926
