19
Iteration:  1504
 C         1.843402         0.285602         0.026512
 C         0.425692        -0.182927        -0.005639
 C        -0.793176        -0.349599        -0.007725
 C        -2.273683        -0.289462        -0.172355
 C        -2.735173         0.927064        -1.077738
 O        -2.845894        -0.117322         1.128116
 C        -3.345254        -1.329314         1.576995
 C        -3.834277        -0.904850         2.937129
 O        -3.486253        -2.325933         0.974250
 H         1.962642         1.215554         0.396898
 H         2.327564        -0.355828         0.738048
 H         2.338187         0.242713        -1.046787
 H        -2.544543        -1.356215        -0.474919
 H        -2.461128         1.788894        -0.560179
 H        -2.107601         0.964383        -2.036765
 H        -3.737847         0.772632        -1.267000
 H        -3.050813        -0.513553         3.599008
 H        -4.581582        -0.157075         2.636422
 H        -4.381240        -1.741968         3.373156
