19
Iteration:  1957
 C         1.872140         0.167291         0.075798
 C         0.508911        -0.206584        -0.148916
 C        -0.682691        -0.234451         0.000296
 C        -2.076341        -0.358740        -0.144250
 C        -2.672078         0.600098        -1.223492
 O        -2.742716        -0.060817         1.181520
 C        -3.471251        -1.145586         1.624504
 C        -3.908851        -0.861535         3.025725
 O        -3.804748        -2.146883         0.961111
 H         2.320979         0.679849        -0.766181
 H         1.994143         0.837817         0.898479
 H         2.421881        -0.742833         0.422411
 H        -2.381472        -1.413466        -0.460040
 H        -2.172563         1.486749        -0.971917
 H        -2.412764         0.277295        -2.299332
 H        -3.732462         0.742114        -1.090575
 H        -4.834589        -0.243430         2.966401
 H        -4.308611        -1.811266         3.367652
 H        -3.077131        -0.356547         3.456322
