19
Iteration:  2436charge 0 multiplicity 1
 C         1.800990        -0.534787         0.310974
 C         0.305802        -0.280792         0.171546
 C        -0.853856        -0.167236        -0.261405
 C        -2.301535        -0.125142        -0.391378
 C        -2.724094         1.189087        -1.114080
 O        -3.057317        -0.060477         0.842631
 C        -3.233284        -1.133959         1.567116
 C        -3.827279        -0.802198         2.967410
 O        -3.151398        -2.296924         1.242979
 H         1.986480        -1.705586         0.279986
 H         2.288050        -0.220388        -0.618801
 H         2.366698        -0.095227         1.265089
 H        -2.583836        -1.025066        -1.045373
 H        -2.572307         2.008146        -0.364975
 H        -2.360192         1.544457        -2.109697
 H        -3.885717         1.274308        -1.216835
 H        -4.830081        -1.237883         2.873050
 H        -3.243786        -1.238021         3.798541
 H        -3.921658         0.329522         3.084544
