19
Iteration:  4759
 C         2.075791        -0.702950        -0.517095
 C         0.618305        -0.409386        -0.083918
 C        -0.589566        -0.340116        -0.075832
 C        -2.059811        -0.394539         0.044048
 C        -2.751642         0.633719        -0.907457
 O        -2.406645        -0.262205         1.366469
 C        -3.663864        -0.859989         1.612185
 C        -3.834980        -0.622168         3.142064
 O        -4.381384        -1.332443         0.826144
 H         2.492727         0.237681        -0.945522
 H         2.813068        -0.876077         0.324383
 H         2.176325        -1.528210        -1.300749
 H        -2.380125        -1.371339        -0.337723
 H        -3.699186         0.336531        -1.188766
 H        -2.904596         1.570976        -0.497267
 H        -2.173350         0.698304        -1.872537
 H        -2.956587        -0.983793         3.712485
 H        -3.589079         0.457339         3.333595
 H        -4.817089        -1.000292         3.450369
