19
Iteration:  3716charge 0 multiplicity 1
 C         1.994524         0.310614        -0.408216
 C         0.715790        -0.336585        -0.153742
 C        -0.405174        -0.681759         0.071362
 C        -1.808607        -0.899145         0.036212
 C        -2.573508         0.062977        -0.940097
 O        -2.370682        -0.483156         1.415871
 C        -3.736804        -0.649301         1.607999
 C        -4.127638        -0.835506         3.080770
 O        -4.551818        -0.895001         0.705826
 H         2.240924         0.134975        -1.426998
 H         1.726732         1.404121        -0.387113
 H         2.691496         0.136096         0.379893
 H        -2.130953        -1.972922        -0.301450
 H        -3.791494         0.005493        -0.873427
 H        -2.130655         1.056325        -0.646306
 H        -2.117256        -0.078338        -1.916605
 H        -5.217351        -0.682570         3.146142
 H        -3.798317        -1.840414         3.234151
 H        -3.526543        -0.086734         3.638876
