19
Iteration:  1719charge 0 multiplicity 1
 C         1.928593         0.562159        -0.379997
 C         0.592390         0.190872         0.035223
 C        -0.504638        -0.268391         0.108540
 C        -1.888136        -0.637179         0.027777
 C        -2.432207         0.246813        -1.135115
 O        -2.519076        -0.479907         1.319726
 C        -3.750329        -1.058841         1.619280
 C        -3.942173        -1.183836         3.119616
 O        -4.447411        -1.562241         0.751449
 H         2.763298        -0.139485         0.004822
 H         2.051927         0.557184        -1.532127
 H         2.032104         1.528442        -0.046058
 H        -2.002723        -1.690558        -0.214635
 H        -2.143723         1.299000        -0.953361
 H        -1.772738        -0.017174        -2.105758
 H        -3.459458         0.123122        -1.384132
 H        -4.907489        -1.672075         3.344030
 H        -3.118044        -1.617524         3.690722
 H        -4.141977        -0.244896         3.641657
