19
Iteration:  3769charge 0 multiplicity 1
 C         1.917139         0.312208        -0.596751
 C         0.630030        -0.356834        -0.109317
 C        -0.507590        -0.653404         0.155092
 C        -1.908228        -0.789694         0.071244
 C        -2.159237         0.422678        -0.928441
 O        -2.415022        -0.745482         1.424549
 C        -3.734785        -0.836753         1.638072
 C        -4.236594        -0.555656         3.136552
 O        -4.511063        -1.184962         0.690383
 H         2.156236        -0.056180        -1.584119
 H         1.893805         1.380533        -0.699259
 H         2.713597        -0.001235         0.040135
 H        -2.252809        -1.699976        -0.453407
 H        -3.328703         0.446517        -0.976605
 H        -1.586188         1.311426        -0.540840
 H        -1.842688         0.209283        -1.947444
 H        -5.350306        -0.553281         3.048841
 H        -3.844199        -1.433639         3.669302
 H        -3.865927         0.432164         3.538037
