19
Iteration:  3467charge 0 multiplicity 1
 C         1.934061        -0.344829         0.047408
 C         0.492917        -0.281764         0.033258
 C        -0.733003        -0.523943        -0.049675
 C        -2.282971        -0.363875        -0.364066
 C        -2.450113         0.901141        -1.215331
 O        -2.819223        -0.101606         0.920423
 C        -3.456502        -1.007074         1.651487
 C        -3.878365        -0.402814         2.968778
 O        -3.806135        -2.152117         1.343823
 H         2.287854        -1.202128        -0.407060
 H         2.436169         0.501220        -0.345988
 H         2.115708        -0.560750         1.086267
 H        -2.595616        -1.349516        -0.628325
 H        -3.588342         0.907918        -1.400282
 H        -2.075867         1.748721        -0.672399
 H        -2.099489         0.761337        -2.197492
 H        -4.766051         0.208504         2.730478
 H        -4.191053        -1.221502         3.628408
 H        -3.138949         0.198220         3.441273
