19
Iteration:  4828
 C         2.027475        -0.689228        -0.558241
 C         0.575205        -0.564321        -0.259311
 C        -0.650660        -0.493733        -0.142826
 C        -2.107054        -0.225418        -0.049050
 C        -2.387333         0.921327        -1.120646
 O        -2.573679        -0.002275         1.451052
 C        -3.633280        -0.863555         1.799717
 C        -4.174749        -0.681160         3.249333
 O        -4.048541        -1.730771         0.956765
 H         2.133304         0.093530        -1.299698
 H         2.558558        -0.315740         0.292619
 H         2.364610        -1.707623        -0.889857
 H        -2.524408        -1.122988        -0.418207
 H        -3.432758         1.352934        -0.851976
 H        -1.757669         1.848367        -0.970167
 H        -2.439335         0.457009        -2.088398
 H        -3.906009        -1.542939         3.954842
 H        -3.655279         0.107963         3.823128
 H        -5.287465        -0.616267         3.225418
