19
Iteration:  3494
 C         1.867559        -0.196852         0.189627
 C         0.515884        -0.438929         0.002579
 C        -0.655443        -0.479888        -0.401118
 C        -2.191658        -0.404752        -0.403834
 C        -2.480991         0.863102        -1.246645
 O        -2.686778        -0.164015         1.057856
 C        -3.598294        -1.047525         1.669420
 C        -3.800984        -0.361268         3.091702
 O        -3.999661        -2.118530         1.280110
 H         2.618074        -0.855577        -0.356219
 H         1.980764         0.874382        -0.066326
 H         2.025246        -0.367950         1.268951
 H        -2.484106        -1.434723        -0.558609
 H        -3.521697         1.018537        -1.411127
 H        -1.961964         1.771901        -0.794725
 H        -2.101662         0.577135        -2.277406
 H        -4.664162         0.315346         3.043671
 H        -4.008770        -1.154296         3.837433
 H        -2.885858         0.216626         3.406323
