19
Iteration:  3949
 C         1.823287        -0.708834         0.021786
 C         0.466061        -0.485361        -0.012470
 C        -0.698931        -0.228539        -0.181736
 C        -2.128973        -0.030216        -0.268317
 C        -2.700794         1.048635        -1.182413
 O        -2.724673         0.071965         1.172234
 C        -3.474720        -1.060062         1.646130
 C        -3.782488        -0.894142         3.183368
 O        -3.805314        -1.969045         0.958647
 H         2.140560        -1.381715        -0.702808
 H         2.339197         0.196485        -0.255284
 H         2.337374        -1.020806         0.932253
 H        -2.541516        -1.014330        -0.701035
 H        -3.767091         0.938699        -1.394384
 H        -2.469980         1.980808        -0.494061
 H        -2.066495         1.161842        -2.142383
 H        -3.490509        -1.821662         3.689711
 H        -3.307300         0.006836         3.577431
 H        -4.843052        -0.719060         3.239827
