19
Iteration:  1302
 C         1.553801        -0.385380         0.481047
 C         0.138704        -0.196551         0.041498
 C        -1.028828        -0.324691        -0.332796
 C        -2.530373        -0.082582        -0.411243
 C        -2.941209         1.225496        -1.124759
 O        -3.247884        -0.035595         0.816872
 C        -3.048823        -1.152235         1.578339
 C        -3.864403        -1.216916         2.838938
 O        -2.185524        -2.064028         1.348157
 H         2.235585        -0.417479        -0.440036
 H         1.828802         0.537751         1.201924
 H         1.578142        -1.250832         1.144428
 H        -2.913331        -0.909353        -1.022557
 H        -2.378469         2.017433        -0.610486
 H        -2.707970         1.158998        -2.140631
 H        -4.038577         1.383660        -0.984708
 H        -4.974585        -1.121111         2.691491
 H        -3.610489        -2.158316         3.461576
 H        -3.502179        -0.387605         3.518749
