19
Iteration:  4629charge 0 multiplicity 1
 C         1.782848        -0.097339        -0.152969
 C         0.451206        -0.690819        -0.057161
 C        -0.674140        -0.912619        -0.470075
 C        -2.105961        -0.559868        -0.170415
 C        -2.444461         0.755319        -0.907525
 O        -2.277454        -0.657286         1.233197
 C        -3.538778        -0.814545         1.704343
 C        -3.665458        -0.694072         3.181190
 O        -4.467330        -0.877544         0.957626
 H         1.565173         0.934774         0.089317
 H         2.503107        -0.460977         0.550342
 H         2.110703        -0.093775        -1.235862
 H        -2.808867        -1.258444        -0.663171
 H        -3.538205         0.821881        -0.880016
 H        -1.959960         1.713720        -0.764508
 H        -2.303500         0.450266        -2.084750
 H        -2.807693        -0.692776         3.867737
 H        -4.181906         0.310167         3.244376
 H        -4.434544        -1.337784         3.615233
