19
Iteration:  3488charge 0 multiplicity 1
 C         1.860799        -0.252935         0.179574
 C         0.465689        -0.388037         0.001714
 C        -0.663373        -0.483160        -0.347744
 C        -2.137511        -0.388548        -0.377067
 C        -2.473587         0.876278        -1.230101
 O        -2.710342        -0.146216         1.031449
 C        -3.609479        -1.043272         1.669420
 C        -3.818585        -0.362959         3.069826
 O        -3.957274        -2.141849         1.309285
 H         2.491736        -0.890479        -0.462940
 H         2.046207         0.819105        -0.219764
 H         2.220689        -0.348249         1.225673
 H        -2.527808        -1.388353        -0.768151
 H        -3.562995         0.962450        -1.519511
 H        -1.894539         1.714340        -0.848429
 H        -2.089953         0.627094        -2.191609
 H        -4.674381         0.311591         3.006527
 H        -4.001221        -1.191275         3.765288
 H        -2.927916         0.152971         3.299621
