19
Iteration:  3271
 C         1.590824        -0.918271         0.252268
 C         0.190555        -0.574405        -0.080153
 C        -1.036507        -0.465425        -0.195508
 C        -2.411912        -0.151566        -0.508872
 C        -2.489558         1.379179        -1.066477
 O        -3.260830        -0.009128         0.702688
 C        -3.112854        -0.949904         1.668876
 C        -4.287596        -0.767654         2.649113
 O        -2.288254        -1.881084         1.843020
 H         1.512603        -1.957404         0.569619
 H         2.361334        -0.877288        -0.502568
 H         1.976442        -0.159046         0.997703
 H        -2.871132        -0.787700        -1.269614
 H        -3.533418         1.453397        -1.431105
 H        -2.266797         1.990444        -0.245701
 H        -1.804389         1.655962        -1.794842
 H        -4.629765         0.252596         2.448453
 H        -5.154842        -1.447071         2.448085
 H        -4.192185        -0.839013         3.748878
