19
Iteration:  2213
 C         1.636571        -0.577903         0.251121
 C         0.159782        -0.485559         0.103399
 C        -1.042944        -0.291750        -0.029808
 C        -2.403114        -0.015393        -0.457932
 C        -2.684223         1.280569        -1.060943
 O        -3.260980        -0.076412         0.768081
 C        -3.104982        -1.129046         1.557110
 C        -3.945691        -0.831461         2.841372
 O        -2.485301        -2.143499         1.370334
 H         2.035081        -0.090510         1.239537
 H         1.902818        -1.653390         0.332728
 H         2.146128        -0.244911        -0.553431
 H        -2.838762        -0.885699        -1.008964
 H        -2.361058         2.169945        -0.395174
 H        -2.159184         1.479156        -1.975158
 H        -3.706637         1.293783        -1.358186
 H        -3.773578         0.200969         3.222169
 H        -5.034906        -0.818614         2.646486
 H        -3.736749        -1.669077         3.503849
