19
Iteration:  1712charge 0 multiplicity 1
 C         1.920135         0.515504        -0.338474
 C         0.594060         0.230244        -0.054525
 C        -0.527745        -0.232209         0.151671
 C        -1.933801        -0.646715        -0.009800
 C        -2.402628         0.250216        -1.142405
 O        -2.535915        -0.512500         1.370020
 C        -3.741768        -1.074409         1.607067
 C        -3.964645        -1.150576         3.139184
 O        -4.401994        -1.548607         0.746934
 H         2.635105        -0.082255         0.077380
 H         1.971399         0.449275        -1.445756
 H         2.211721         1.642368        -0.091733
 H        -1.962957        -1.759297        -0.102226
 H        -2.172965         1.279657        -1.033636
 H        -1.848877         0.063563        -2.046852
 H        -3.461065         0.093649        -1.425241
 H        -4.864389        -1.796568         3.293712
 H        -3.097725        -1.817260         3.434680
 H        -3.849011        -0.128252         3.565845
