19
Iteration:  4704charge 0 multiplicity 1
 C         2.135630        -0.503248        -0.274132
 C         0.685094        -0.362169        -0.339717
 C        -0.527118        -0.408067        -0.254567
 C        -2.011942        -0.463051        -0.140773
 C        -2.776594         0.611955        -0.857452
 O        -2.381357        -0.706318         1.302263
 C        -3.647814        -0.873156         1.663432
 C        -3.784424        -0.543572         3.156818
 O        -4.604585        -1.037802         0.981458
 H         2.554070         0.470569        -0.156699
 H         2.314635        -0.978198         0.708679
 H         2.543173        -1.174400        -1.016212
 H        -2.208509        -1.351888        -0.652493
 H        -3.789847         0.297514        -0.924163
 H        -2.728135         1.585081        -0.457851
 H        -2.318346         0.691040        -1.858961
 H        -2.886626        -0.701596         3.748178
 H        -4.202465         0.471730         3.326710
 H        -4.494131        -1.232630         3.617669
