19
Iteration:  2405charge 0 multiplicity 1
 C         1.621122        -0.553204         0.441407
 C         0.296907        -0.390416        -0.177737
 C        -0.913934        -0.271905        -0.184925
 C        -2.311994        -0.069417        -0.296860
 C        -2.755535         1.188743        -1.197707
 O        -2.948417         0.067083         0.998504
 C        -3.280403        -1.160877         1.571219
 C        -3.937350        -0.863105         2.907223
 O        -2.865092        -2.211727         1.163265
 H         1.609742        -1.476273         0.851916
 H         2.408832        -0.411552        -0.304825
 H         1.765488         0.231755         1.284656
 H        -2.602067        -0.943682        -0.801165
 H        -2.220790         2.120706        -0.824112
 H        -2.687925         0.997971        -2.250504
 H        -3.792764         1.387574        -0.803428
 H        -4.997591        -1.006758         2.845717
 H        -3.628790        -1.578931         3.679637
 H        -3.546151         0.095901         3.293772
