19
Iteration:    12
 C         1.857677         0.851461         0.065982
 C         0.513717         0.330590        -0.018464
 C        -0.656751         0.095150        -0.129760
 C        -2.039137        -0.291281        -0.101361
 C        -3.021977         0.560682        -0.985659
 O        -2.489936        -0.449148         1.284827
 C        -3.393015        -1.494585         1.576636
 C        -3.912719        -1.462177         2.897933
 O        -3.836422        -2.265934         0.748132
 H         2.150786         0.978677         1.140210
 H         2.648326         0.294251        -0.423816
 H         1.886174         1.910710        -0.288912
 H        -2.017299        -1.314316        -0.489555
 H        -3.209071         1.487422        -0.449851
 H        -2.628179         0.929261        -1.960964
 H        -3.993835         0.096511        -1.134822
 H        -4.653150        -2.231886         3.031160
 H        -3.021776        -1.675279         3.510082
 H        -4.208348        -0.464530         3.190903
