19
Iteration:  4092
 C         1.183017        -1.152425         0.531374
 C         0.017082        -0.633149        -0.046548
 C        -1.084824        -0.337655        -0.333087
 C        -2.462949         0.055396        -0.478408
 C        -2.486534         1.522368        -0.930220
 O        -3.159918         0.120678         0.808431
 C        -3.100880        -1.043537         1.558810
 C        -3.329703        -0.685999         2.998896
 O        -2.752348        -2.135708         1.101087
 H         1.286068        -2.179513         0.369492
 H         2.085915        -0.565752         0.388465
 H         0.991737        -1.014590         1.620373
 H        -3.079852        -0.558552        -1.047231
 H        -3.552903         1.809170        -0.966768
 H        -1.767306         2.136489        -0.304530
 H        -2.239310         1.606982        -1.970885
 H        -2.990364         0.315005         3.162264
 H        -4.325079        -0.911607         3.342414
 H        -2.728681        -1.433486         3.543740
