19
Iteration:  1926
 C         1.902614         0.201549         0.103949
 C         0.494462         0.113317        -0.107511
 C        -0.604503        -0.345781        -0.235368
 C        -2.040428        -0.462339        -0.216938
 C        -2.702827         0.592989        -1.157922
 O        -2.558457        -0.282571         1.203340
 C        -3.562209        -1.175308         1.662621
 C        -4.014038        -0.769184         3.070541
 O        -3.924789        -2.052937         0.963496
 H         2.560853         0.297290        -0.902172
 H         2.269107         1.051751         0.758729
 H         2.210492        -0.713758         0.519823
 H        -2.311488        -1.531466        -0.370223
 H        -2.504114         1.510463        -0.737126
 H        -2.085337         0.529042        -2.151200
 H        -3.729063         0.215636        -1.271141
 H        -4.438332         0.226624         3.161300
 H        -4.752839        -1.513093         3.384838
 H        -3.268127        -0.908089         3.822140
