19
Iteration:  2947charge 0 multiplicity 1
 C         1.989544         0.167915         0.050314
 C         0.599924        -0.409289         0.072349
 C        -0.574460        -0.588807        -0.223859
 C        -2.018215        -0.546083        -0.217991
 C        -2.550052         0.647435        -1.045061
 O        -2.457825        -0.354705         1.159674
 C        -3.618193        -1.009106         1.636261
 C        -3.869558        -0.656738         3.024423
 O        -4.434475        -1.645125         0.887537
 H         2.165694         1.028096         0.760522
 H         2.734516        -0.674067         0.236920
 H         2.257363         0.783294        -0.915054
 H        -2.512400        -1.507629        -0.494702
 H        -3.726433         0.579701        -1.030527
 H        -2.074962         1.533056        -0.624530
 H        -2.240112         0.498076        -2.046394
 H        -3.244114        -1.307454         3.620592
 H        -3.775295         0.390857         3.319928
 H        -4.930271        -0.935029         3.177137
