19
Iteration:  4506charge 0 multiplicity 1
 C         2.122187        -0.660482        -0.355355
 C         0.653064        -0.390564        -0.083539
 C        -0.538378        -0.201429        -0.080400
 C        -1.990842        -0.418825        -0.046373
 C        -2.877693         0.529521        -0.960078
 O        -2.379993        -0.372252         1.307621
 C        -3.614572        -0.865126         1.630119
 C        -3.738674        -0.710365         3.117517
 O        -4.529794        -1.142626         0.846355
 H         2.709843        -0.383750         0.475079
 H         2.069163        -1.727468        -0.396163
 H         2.436339        -0.123307        -1.224909
 H        -2.302129        -1.341481        -0.368083
 H        -3.980023         0.174668        -0.961644
 H        -2.838959         1.674635        -0.925410
 H        -2.478367         0.266158        -1.982116
 H        -2.901289        -1.173384         3.681669
 H        -3.745015         0.331815         3.481043
 H        -4.706545        -1.162724         3.418001
