19
Iteration:  2738charge 0 multiplicity 1
 C         2.048388         0.077687        -0.201643
 C         0.655273        -0.233704        -0.169064
 C        -0.543930        -0.301597         0.052888
 C        -1.979183        -0.512285        -0.063026
 C        -2.558451         0.372239        -1.077221
 O        -2.464106        -0.293991         1.414374
 C        -3.647219        -0.935348         1.633571
 C        -4.167824        -0.875369         3.070221
 O        -4.261726        -1.555385         0.739788
 H         2.113534         0.966776        -0.797004
 H         2.381829         0.227085         0.881117
 H         2.753977        -0.639284        -0.777581
 H        -2.162917        -1.586593        -0.124948
 H        -3.598827         0.417799        -1.081204
 H        -2.028297         1.351474        -1.115812
 H        -2.427713        -0.029258        -2.136876
 H        -5.065227        -0.229471         2.994094
 H        -4.629085        -1.850250         3.236509
 H        -3.515233        -0.464300         3.832206
