19
Iteration:  4763
 C         2.099320        -0.727520        -0.529231
 C         0.605942        -0.406762        -0.119586
 C        -0.615295        -0.346616        -0.032318
 C        -2.052544        -0.390596         0.029997
 C        -2.742797         0.626070        -0.900700
 O        -2.457258        -0.231553         1.385224
 C        -3.656928        -0.860192         1.648883
 C        -3.825166        -0.617391         3.135809
 O        -4.347110        -1.346530         0.798694
 H         2.520127         0.153850        -0.975259
 H         2.747378        -0.798611         0.304644
 H         2.367220        -1.447933        -1.300021
 H        -2.494193        -1.346341        -0.239360
 H        -3.803452         0.354287        -1.250242
 H        -2.794980         1.686021        -0.458000
 H        -2.161254         0.649075        -1.841885
 H        -2.947251        -1.074445         3.648522
 H        -3.604581         0.430698         3.335446
 H        -4.825609        -0.999784         3.367706
