19
Iteration:  4152
 C         1.084741        -1.513458         0.504474
 C        -0.087681        -0.756941         0.086529
 C        -0.981816        -0.088168        -0.351190
 C        -2.453102         0.196433        -0.494184
 C        -2.852708         1.551378        -1.184638
 O        -2.912254         0.225251         0.902383
 C        -2.984738        -0.947920         1.600271
 C        -3.621711        -0.881138         2.991505
 O        -2.374136        -2.004863         1.201361
 H         1.219292        -2.617447         0.358392
 H         1.931285        -1.049190        -0.029070
 H         1.257868        -1.265279         1.531613
 H        -3.068799        -0.578003        -1.075614
 H        -3.842019         1.523741        -1.643848
 H        -2.911900         2.423498        -0.547394
 H        -1.946159         1.731764        -1.840793
 H        -4.252232        -0.010549         3.317982
 H        -4.338505        -1.719020         3.075925
 H        -2.769740        -1.008318         3.671293
