19
Iteration:  2915
 C         1.942871         0.259769        -0.019315
 C         0.661768        -0.337760        -0.152585
 C        -0.527147        -0.531325        -0.073421
 C        -1.941741        -0.671483        -0.141582
 C        -2.642687         0.463112        -0.960765
 O        -2.376062        -0.571784         1.332595
 C        -3.657614        -0.948703         1.560126
 C        -3.995785        -0.636803         3.058553
 O        -4.370387        -1.383813         0.704256
 H         1.978588         0.955570         0.687942
 H         2.701764        -0.445869         0.389216
 H         2.468333         0.423035        -0.996325
 H        -2.451698        -1.607322        -0.388212
 H        -3.659839         0.775125        -0.544238
 H        -2.170715         1.442359        -0.917498
 H        -2.759879         0.287984        -1.992759
 H        -3.736303        -1.612173         3.477494
 H        -3.505509         0.238618         3.545230
 H        -5.104018        -0.669033         3.210452
