19
Iteration:  2446charge 0 multiplicity 1
 C         1.725541        -0.506475         0.240061
 C         0.325703        -0.285568         0.235008
 C        -0.786054        -0.162158        -0.193034
 C        -2.241510        -0.095414        -0.431667
 C        -2.743220         1.216722        -1.107981
 O        -3.042561        -0.061323         0.811595
 C        -3.278797        -1.171414         1.599692
 C        -3.801686        -0.784198         2.921473
 O        -3.216056        -2.343407         1.264141
 H         1.947048        -1.690003         0.142808
 H         2.147315         0.004296        -0.623418
 H         2.324154        -0.137285         1.152831
 H        -2.614620        -1.110057        -0.864238
 H        -2.605567         1.972644        -0.344670
 H        -2.022587         1.506406        -1.936746
 H        -3.810893         1.057781        -1.472556
 H        -4.757204        -1.229432         3.230802
 H        -3.049994        -1.122251         3.663863
 H        -3.917917         0.340786         2.994280
