19
Iteration:   227
 C         1.539980         0.212236         0.436691
 C         0.194554        -0.047707         0.010060
 C        -0.994972        -0.032340        -0.312200
 C        -2.452442        -0.118966        -0.442634
 C        -2.971948         1.216779        -1.075461
 O        -3.296417        -0.349938         0.854011
 C        -3.069948        -1.431764         1.607345
 C        -3.692994        -1.239883         2.872624
 O        -2.406202        -2.397325         1.288104
 H         2.217551         0.052925        -0.272313
 H         1.700439         1.240010         0.789870
 H         1.926875        -0.511434         1.222605
 H        -2.628714        -1.028726        -1.037524
 H        -2.832716         2.017474        -0.241453
 H        -2.264396         1.598400        -1.824769
 H        -4.005781         1.238464        -1.610868
 H        -4.320199        -2.084592         3.161875
 H        -2.980516        -1.307020         3.713423
 H        -4.279713        -0.318716         2.979952
