19
Iteration:   532
 C         1.755575         0.573850         0.099017
 C         0.329466         0.006041         0.023322
 C        -0.863722        -0.242859        -0.060803
 C        -2.297116        -0.271021        -0.335868
 C        -2.723190         0.980720        -1.192141
 O        -3.086637        -0.196145         0.999675
 C        -3.348071        -1.381482         1.660398
 C        -3.832002        -1.265507         3.110029
 O        -3.021820        -2.425578         1.050978
 H         2.296407         0.212314         0.971748
 H         2.344183         0.300356        -0.846846
 H         1.588167         1.686734         0.178704
 H        -2.569661        -1.311624        -0.685761
 H        -2.530889         1.828803        -0.549200
 H        -2.125126         1.047148        -2.152753
 H        -3.803136         0.895169        -1.493010
 H        -3.842729        -0.280235         3.505177
 H        -4.812181        -1.672581         3.339069
 H        -3.155408        -1.911975         3.592555
