19
Iteration:  2981
 C         2.021995        -0.042728         0.162397
 C         0.491505        -0.217460        -0.081323
 C        -0.694308        -0.530335        -0.056853
 C        -2.149509        -0.499638        -0.231390
 C        -2.453047         0.721120        -1.171573
 O        -2.631954        -0.230499         1.074733
 C        -3.656581        -1.008557         1.617438
 C        -3.736260        -0.623785         3.071486
 O        -4.250564        -1.862918         0.953725
 H         2.261166         0.383896         1.195934
 H         2.465794        -1.100812         0.171973
 H         2.623328         0.497989        -0.731286
 H        -2.357950        -1.468486        -0.740441
 H        -3.506908         0.668276        -1.550091
 H        -2.422140         1.667920        -0.526594
 H        -1.732255         0.760987        -1.986465
 H        -2.843711        -0.975123         3.569589
 H        -3.841285         0.470624         3.302324
 H        -4.536350        -1.334125         3.432821
