19
Iteration:  4711charge 0 multiplicity 1
 C         2.130454        -0.517865        -0.292381
 C         0.687783        -0.388240        -0.274029
 C        -0.540124        -0.339309        -0.201574
 C        -1.989532        -0.486215        -0.156974
 C        -2.806392         0.612095        -0.887055
 O        -2.329928        -0.679128         1.205773
 C        -3.614989        -0.837971         1.721004
 C        -3.846449        -0.555173         3.229831
 O        -4.615000        -1.082044         0.965526
 H         2.842201         0.444394        -0.356267
 H         2.574607        -1.071387         0.616925
 H         2.385768        -1.226516        -1.133162
 H        -2.353575        -1.534379        -0.622311
 H        -3.926990         0.454349        -1.110260
 H        -2.763925         1.633942        -0.352510
 H        -2.304198         0.750447        -1.802976
 H        -2.944520        -0.659193         3.838401
 H        -4.117345         0.489351         3.308465
 H        -4.638595        -1.274255         3.526022
