19
Iteration:  3186charge 0 multiplicity 1
 C         1.501055        -0.837550         0.407258
 C         0.115597        -0.623901         0.113516
 C        -1.073116        -0.449292        -0.168800
 C        -2.433122        -0.088205        -0.607162
 C        -2.483974         1.354526        -1.074848
 O        -3.277403        -0.070452         0.647787
 C        -3.094588        -1.024781         1.581130
 C        -4.088208        -0.660406         2.818848
 O        -2.321430        -1.925400         1.598672
 H         1.772890        -1.592744         1.236492
 H         1.827292        -1.252769        -0.551766
 H         2.043699         0.041796         0.638972
 H        -2.780734        -0.903907        -1.318283
 H        -3.626461         1.683451        -1.255661
 H        -1.974594         2.093673        -0.384383
 H        -2.057148         1.398435        -2.085032
 H        -3.916953         0.335762         3.249022
 H        -5.160710        -0.781925         2.454520
 H        -3.947991        -1.471322         3.556201
