19
Iteration:  4588
 C         1.865493        -0.063499        -0.122049
 C         0.518935        -0.650582        -0.366131
 C        -0.676405        -0.995036        -0.218838
 C        -2.062903        -0.619326        -0.167716
 C        -2.357538         0.642434        -0.903110
 O        -2.460649        -0.379773         1.177212
 C        -3.675447        -0.678504         1.656796
 C        -3.567882        -0.794402         3.199034
 O        -4.593691        -0.966197         0.997207
 H         1.790397         0.822034         0.564156
 H         2.668412        -0.694373         0.279216
 H         2.364186         0.078270        -1.104492
 H        -2.849590        -1.423243        -0.465511
 H        -3.392275         0.845196        -0.888546
 H        -1.799803         1.423003        -0.389457
 H        -1.924207         0.575217        -1.892094
 H        -2.550876        -1.082667         3.447264
 H        -3.892631         0.182002         3.549571
 H        -4.203541        -1.608717         3.487654
