19
Iteration:  1395charge 0 multiplicity 1
 C         1.709579        -0.371666         0.197537
 C         0.287485        -0.011054         0.206968
 C        -0.892184        -0.019244        -0.148349
 C        -2.314861        -0.119786        -0.366638
 C        -3.042860         0.998498        -1.026736
 O        -3.087168        -0.100555         0.872132
 C        -3.137555        -1.192115         1.634730
 C        -3.911123        -1.014097         2.810596
 O        -2.673739        -2.277159         1.202398
 H         2.238607         0.484181        -0.288600
 H         2.143152        -0.357568         1.196761
 H         2.021187        -1.455312        -0.301952
 H        -2.496042        -1.154073        -0.827413
 H        -2.956003         1.917898        -0.440306
 H        -2.616829         1.191626        -2.174061
 H        -4.076891         0.761532        -1.160092
 H        -4.077679        -1.975741         3.256513
 H        -3.544185        -0.356239         3.568863
 H        -4.920025        -0.595813         2.601476
