19
Iteration:  1310
 C         1.518527        -0.343224         0.492893
 C         0.156531        -0.273804        -0.056416
 C        -1.040929        -0.244890        -0.303278
 C        -2.473642        -0.108227        -0.421908
 C        -2.932345         1.254809        -1.132184
 O        -3.201458        -0.068417         0.860701
 C        -3.032554        -1.213726         1.615017
 C        -3.913087        -1.211634         2.897025
 O        -2.224646        -2.022445         1.325627
 H         2.433840        -0.428835        -0.274547
 H         1.695540         0.409648         1.199433
 H         1.542401        -1.240821         1.011490
 H        -2.909336        -0.872337        -1.041310
 H        -2.591201         2.168174        -0.733228
 H        -2.582711         1.103337        -2.221855
 H        -3.984320         1.306005        -1.138934
 H        -4.992281        -1.280832         2.746042
 H        -3.521862        -2.124875         3.310567
 H        -3.732366        -0.232003         3.384202
