19
Iteration:  1995charge 0 multiplicity 1
 C         1.974617         0.030394         0.034225
 C         0.545707        -0.233968         0.200223
 C        -0.679043        -0.286878         0.023404
 C        -2.198396        -0.259195        -0.279652
 C        -2.756329         0.739471        -1.336252
 O        -2.898430         0.000194         1.079973
 C        -3.505715        -1.108790         1.598883
 C        -3.899976        -0.912595         3.009766
 O        -3.599118        -2.232526         1.066963
 H         2.043649         0.652022        -0.956749
 H         2.470095         0.575438         0.898110
 H         2.507491        -0.846277        -0.317602
 H        -2.416655        -1.273025        -0.433257
 H        -2.216846         1.733397        -1.065431
 H        -2.580478         0.618334        -2.362750
 H        -3.861508         0.897827        -1.175595
 H        -4.960114        -0.901633         3.218020
 H        -3.382170        -1.671764         3.576320
 H        -3.518143        -0.031715         3.586087
