19
Iteration:  1205charge 0 multiplicity 1
 C         1.611340        -0.320149         0.368423
 C         0.208074        -0.051679         0.097416
 C        -0.995124        -0.016145        -0.107062
 C        -2.371612        -0.142060        -0.458398
 C        -2.982650         1.099330        -1.131471
 O        -3.254823        -0.212111         0.777814
 C        -3.100543        -1.226667         1.572468
 C        -3.727298        -1.012048         2.972584
 O        -2.493277        -2.267594         1.213351
 H         1.935682        -1.213157         0.043403
 H         2.270702         0.570577        -0.019622
 H         1.601182        -0.205870         1.528231
 H        -2.523311        -1.081592        -1.083810
 H        -3.183241         1.615934        -0.140290
 H        -2.302722         1.771350        -1.684635
 H        -3.934793         0.872021        -1.725468
 H        -3.329847        -0.063174         3.348050
 H        -4.846590        -0.944275         2.910821
 H        -3.504243        -1.957886         3.508052
