19
Iteration:  2067
 C         1.879294        -0.359234         0.222931
 C         0.484262        -0.144928        -0.128465
 C        -0.755316        -0.091376        -0.098802
 C        -2.222810        -0.119741        -0.253763
 C        -2.815052         1.021656        -1.229778
 O        -2.983206        -0.081303         0.946494
 C        -3.350406        -1.186297         1.648489
 C        -3.984600        -0.818723         2.952692
 O        -3.280250        -2.375289         1.279266
 H         2.386547         0.587932        -0.018051
 H         2.056438        -0.498050         1.300026
 H         2.432503        -1.124319        -0.415677
 H        -2.345214        -1.121542        -0.853426
 H        -2.906761         1.967826        -0.817274
 H        -2.120900         1.242706        -2.135642
 H        -3.770523         0.630264        -1.717163
 H        -4.194009        -1.832727         3.371324
 H        -3.297594        -0.216980         3.652987
 H        -4.945693        -0.289822         2.984832
