19
Iteration:  2437
 C         1.792928        -0.534945         0.304970
 C         0.309509        -0.281856         0.183046
 C        -0.850452        -0.165540        -0.259909
 C        -2.291546        -0.126281        -0.390159
 C        -2.726200         1.190395        -1.119609
 O        -3.059070        -0.065421         0.839228
 C        -3.230083        -1.138098         1.559818
 C        -3.822865        -0.803518         2.965730
 O        -3.163018        -2.297251         1.250348
 H         1.978256        -1.631560         0.249336
 H         2.272611        -0.211160        -0.639886
 H         2.384342        -0.109227         1.257148
 H        -2.577458        -1.008173        -0.987650
 H        -2.560317         2.025488        -0.340171
 H        -2.348602         1.572829        -2.065144
 H        -3.869800         1.257715        -1.256549
 H        -4.838177        -1.206754         2.919100
 H        -3.212736        -1.226933         3.771201
 H        -3.945527         0.313117         3.050213
