19
Iteration:  4743charge 0 multiplicity 1
 C         1.975282        -0.623117        -0.447908
 C         0.651781        -0.426956        -0.008845
 C        -0.519268        -0.303545        -0.159606
 C        -1.900370        -0.398006        -0.190667
 C        -2.779789         0.608773        -0.919314
 O        -2.364246        -0.422799         1.357781
 C        -3.657811        -0.823517         1.674694
 C        -3.855708        -0.590101         3.148392
 O        -4.460831        -1.261748         0.930780
 H         2.502173         0.189235        -1.017272
 H         2.658715        -1.039656         0.328954
 H         1.971088        -1.332632        -1.309299
 H        -2.344582        -1.455969        -0.429691
 H        -3.803179         0.160015        -1.262769
 H        -2.864502         1.563610        -0.254377
 H        -2.255948         0.884756        -1.818838
 H        -2.978859        -1.020568         3.637207
 H        -3.931192         0.467604         3.358858
 H        -4.832072        -1.104127         3.319601
