19
Iteration:  3567charge 0 multiplicity 1
 C         1.866753        -0.038103         0.308224
 C         0.472083        -0.352985        -0.009276
 C        -0.672663        -0.515396        -0.444391
 C        -2.094562        -0.602106        -0.248822
 C        -2.818425         0.359690        -1.192232
 O        -2.346128        -0.273911         1.151252
 C        -3.508933        -0.889958         1.621388
 C        -3.633812        -0.554916         3.159721
 O        -4.248899        -1.457839         0.888603
 H         2.533941        -0.625194        -0.296635
 H         2.117229         1.045777         0.350485
 H         1.947789        -0.508994         1.324191
 H        -2.237838        -1.724342        -0.309867
 H        -3.975133         0.309714        -0.983128
 H        -2.499989         1.342706        -0.912640
 H        -2.624919         0.140942        -2.258811
 H        -4.526387         0.082902         3.173896
 H        -3.903654        -1.486956         3.628884
 H        -2.742448        -0.070484         3.617623
