19
Iteration:  3729
 C         1.974170         0.380667        -0.495521
 C         0.702575        -0.312718        -0.215999
 C        -0.363460        -0.805463         0.130730
 C        -1.901263        -0.895248         0.092255
 C        -2.424402         0.136569        -0.846819
 O        -2.401465        -0.498114         1.405754
 C        -3.736779        -0.733242         1.595038
 C        -4.129609        -0.772603         3.029059
 O        -4.577380        -0.920323         0.666313
 H         2.527728         0.131305        -1.400693
 H         1.842340         1.510125        -0.342147
 H         2.731324         0.067990         0.282606
 H        -2.275061        -1.968896        -0.006706
 H        -3.558643         0.179774        -0.695104
 H        -2.112117         1.104758        -0.613572
 H        -2.303483        -0.145431        -1.891696
 H        -5.194175        -0.716304         3.162066
 H        -3.897438        -1.706177         3.502851
 H        -3.666051        -0.059509         3.703420
