19
Iteration:  3699
 C         2.008995         0.284678        -0.351257
 C         0.766767        -0.334479        -0.052093
 C        -0.459926        -0.551972        -0.017137
 C        -2.008077        -0.800690         0.029452
 C        -2.564465         0.037755        -1.106066
 O        -2.382354        -0.552673         1.420739
 C        -3.701743        -0.729163         1.630742
 C        -4.031839        -0.825390         3.086491
 O        -4.535947        -0.855606         0.755784
 H         2.479737        -0.012682        -1.334787
 H         2.001367         1.394101        -0.370775
 H         2.806250        -0.074634         0.399719
 H        -2.178572        -1.831693         0.038885
 H        -3.480534        -0.364838        -1.271252
 H        -2.601046         1.078170        -0.849698
 H        -2.122445        -0.145378        -2.107251
 H        -5.094406        -0.636421         3.185631
 H        -3.875654        -1.906636         3.356623
 H        -3.472409        -0.249967         3.813415
