19
Iteration:  2583
 C         1.897523        -0.137984         0.190814
 C         0.481505        -0.334858         0.024769
 C        -0.716345        -0.356184        -0.187132
 C        -2.132186        -0.297186        -0.256955
 C        -2.792734         0.882971        -1.161373
 O        -2.631986        -0.115987         1.145261
 C        -3.448153        -1.043920         1.572217
 C        -3.998582        -0.797836         3.041916
 O        -3.678129        -2.088293         0.938390
 H         2.523729        -0.268918        -0.626334
 H         2.128370         0.947487         0.516382
 H         2.104389        -0.829069         1.093171
 H        -2.411090        -1.316618        -0.542972
 H        -2.073558         1.693476        -1.345827
 H        -3.018884         0.443485        -2.203161
 H        -3.768367         1.257714        -0.818630
 H        -3.128024        -0.744539         3.698224
 H        -4.280187         0.275184         3.051859
 H        -4.704158        -1.514126         3.462855
