19
Iteration:  3211
 C         1.531300        -0.822246         0.377213
 C         0.111103        -0.690203         0.104048
 C        -1.068254        -0.517684        -0.230357
 C        -2.457381        -0.061648        -0.554348
 C        -2.302834         1.390822        -1.102546
 O        -3.467641        -0.136860         0.589647
 C        -3.182931        -0.923898         1.638757
 C        -4.060586        -0.827018         2.834560
 O        -2.285339        -1.757497         1.656560
 H         1.742746        -1.635120         1.101924
 H         1.969345        -1.129805        -0.618314
 H         2.012578         0.022003         0.852292
 H        -2.744982        -0.823804        -1.284771
 H        -3.351688         1.837239        -1.136622
 H        -1.744043         2.211868        -0.450403
 H        -2.054464         1.291446        -2.260618
 H        -4.053385         0.216546         3.222823
 H        -5.095182        -1.102898         2.629539
 H        -3.565422        -1.491174         3.519384
