19
Iteration:  3200charge 0 multiplicity 1
 C         1.449478        -0.839040         0.337000
 C         0.074171        -0.650269         0.162802
 C        -1.064271        -0.505492        -0.235357
 C        -2.333111        -0.035087        -0.482559
 C        -2.418780         1.344270        -1.098259
 O        -3.364485        -0.105287         0.519292
 C        -3.170463        -0.959050         1.658253
 C        -4.053061        -0.789164         2.842076
 O        -2.304869        -1.817324         1.633995
 H         1.566859        -1.583290         1.131263
 H         2.135343        -1.112399        -0.506214
 H         1.824391         0.117713         0.681539
 H        -2.831266        -0.606332        -1.277209
 H        -3.487422         1.655389        -1.113221
 H        -1.662947         2.019808        -0.518036
 H        -1.921623         1.362954        -2.167369
 H        -3.933956         0.241126         3.213035
 H        -5.110412        -0.989154         2.605453
 H        -3.760712        -1.476031         3.611202
