19
Iteration:  3642
 C         2.119878        -0.058354         0.049644
 C         0.697623         0.043330        -0.125015
 C        -0.502222        -0.251497        -0.127996
 C        -1.932492        -0.776862        -0.086073
 C        -2.704595         0.010946        -1.203532
 O        -2.422158        -0.541636         1.165713
 C        -3.731082        -0.775996         1.584296
 C        -3.710035        -0.772439         3.109363
 O        -4.732573        -1.045426         0.971002
 H         2.274246        -0.527937        -0.919826
 H         2.627131         0.985520         0.032302
 H         2.397256        -0.677098         0.963632
 H        -1.934465        -1.857280        -0.260341
 H        -3.723522        -0.483963        -1.249903
 H        -2.981917         0.915810        -0.876006
 H        -2.119167         0.044917        -2.066822
 H        -4.521423        -0.167060         3.478993
 H        -3.789340        -1.803067         3.305612
 H        -2.722855        -0.374210         3.316482
