19
Iteration:  3403charge 0 multiplicity 1
 C         1.833094        -0.708741        -0.120355
 C         0.410652        -0.533097         0.056139
 C        -0.763086        -0.202884         0.096151
 C        -2.148117        -0.142169        -0.211280
 C        -2.532453         0.857588        -1.398069
 O        -3.015993         0.219173         1.005197
 C        -3.350695        -0.939374         1.759238
 C        -4.291520        -0.673360         2.909774
 O        -3.119044        -2.097659         1.355830
 H         2.138532        -1.722034        -0.420523
 H         2.282437         0.030587        -0.741586
 H         2.264289        -0.647549         0.936042
 H        -2.592174        -1.029531        -0.648767
 H        -3.702274         0.646406        -1.603364
 H        -2.463851         1.905521        -1.261942
 H        -1.955690         0.538967        -2.252585
 H        -5.095855        -0.013099         2.491446
 H        -4.794338        -1.649340         3.131564
 H        -3.901251        -0.224398         3.833168
