19
Iteration:  1517charge 0 multiplicity 1
 C         1.815702         0.310637         0.070758
 C         0.487170        -0.254756        -0.059744
 C        -0.746588        -0.204303        -0.059234
 C        -2.186395        -0.259104        -0.206560
 C        -2.711953         0.901820        -1.043559
 O        -2.763711        -0.255077         1.117596
 C        -3.429298        -1.323075         1.618146
 C        -3.902953        -0.879211         2.950894
 O        -3.582399        -2.365381         1.000379
 H         1.714461         1.348947         0.449515
 H         2.562328        -0.243272         0.519242
 H         2.264970         0.403861        -1.013057
 H        -2.598070        -1.127012        -0.781495
 H        -2.523794         1.878493        -0.604601
 H        -2.204731         0.794942        -2.055679
 H        -3.793151         1.016179        -1.246601
 H        -3.083751        -0.294635         3.366521
 H        -4.653952        -0.075297         2.912991
 H        -4.153696        -1.644416         3.640467
