19
Iteration:  4594charge 0 multiplicity 1
 C         1.845741        -0.082399        -0.163807
 C         0.501776        -0.673157        -0.308231
 C        -0.673033        -0.959600        -0.211374
 C        -2.150977        -0.685323        -0.180248
 C        -2.331963         0.688337        -0.910838
 O        -2.433500        -0.416799         1.195824
 C        -3.613138        -0.655610         1.689538
 C        -3.564148        -0.783359         3.192277
 O        -4.585494        -0.967464         0.952400
 H         1.573511         0.774532         0.438311
 H         2.635246        -0.587860         0.455879
 H         2.428306         0.336573        -1.016440
 H        -2.763657        -1.446637        -0.561163
 H        -3.447431         0.934209        -0.889934
 H        -1.821699         1.482504        -0.346068
 H        -1.947080         0.547663        -2.013584
 H        -2.514946        -0.985437         3.468242
 H        -3.866584         0.187106         3.657101
 H        -4.269211        -1.611090         3.461699
