19
Iteration:  2373
 C         1.525456        -0.551740         0.467355
 C         0.146895        -0.506291        -0.050858
 C        -0.995340        -0.291741        -0.365263
 C        -2.410780        -0.071548        -0.312615
 C        -2.746266         1.211462        -1.289042
 O        -2.857259         0.152055         1.077409
 C        -3.052347        -1.097798         1.768215
 C        -4.026439        -1.021492         2.845957
 O        -2.701070        -2.090570         1.133702
 H         1.590460        -1.328187         1.112784
 H         2.243071        -0.801955        -0.343158
 H         1.877089         0.384648         1.015264
 H        -2.798889        -0.988550        -0.613990
 H        -1.935435         1.916756        -0.940538
 H        -2.620000         1.024634        -2.314108
 H        -3.768592         1.488836        -1.069201
 H        -4.997216        -0.667988         2.517365
 H        -4.158411        -2.058192         3.126991
 H        -3.866353        -0.335171         3.683558
