19
Iteration:  4930
 C         1.795608        -0.888376        -0.249230
 C         0.399204        -0.625761        -0.408354
 C        -0.795034        -0.397894        -0.370146
 C        -2.154747        -0.050807        -0.215029
 C        -2.382052         1.303081        -0.888118
 O        -2.679608        -0.029053         1.187431
 C        -3.419386        -1.000956         1.757700
 C        -4.092213        -0.576439         3.048261
 O        -3.706904        -2.055675         1.358868
 H         2.322999        -0.939499        -1.206026
 H         2.069311         0.069174         0.244467
 H         2.145183        -1.782882         0.203689
 H        -2.531995        -0.954407        -0.717040
 H        -3.265832         1.251414        -1.572420
 H        -2.441472         2.041572        -0.049929
 H        -1.515411         1.685421        -1.600349
 H        -4.939353        -1.225621         3.086814
 H        -3.587315        -0.758901         4.014879
 H        -4.390379         0.473210         3.081697
