19
Iteration:  4640charge 0 multiplicity 1
 C         1.848822        -0.101523        -0.154043
 C         0.469345        -0.634904        -0.107248
 C        -0.658393        -0.916010        -0.451886
 C        -2.067642        -0.612831        -0.251219
 C        -2.597752         0.760757        -0.880270
 O        -2.186499        -0.671512         1.262144
 C        -3.539246        -0.831931         1.686970
 C        -3.737664        -0.614738         3.189228
 O        -4.531494        -0.884127         0.965742
 H         1.889932         0.928707         0.139827
 H         2.492090        -0.593918         0.568533
 H         2.429033        -0.349026        -1.068191
 H        -2.796313        -1.370029        -0.517601
 H        -3.612969         1.082718        -0.678103
 H        -1.901025         1.536426        -0.543525
 H        -2.329369         0.607144        -2.061795
 H        -2.773614        -0.783772         3.685687
 H        -4.233521         0.376262         3.397057
 H        -4.399132        -1.465028         3.370710
