19
Iteration:  4404
 C         2.020217        -0.637854        -0.460563
 C         0.523682        -0.672641        -0.175578
 C        -0.656617        -0.482076        -0.120039
 C        -2.112708        -0.228254        -0.112457
 C        -2.531444         1.038068        -0.808075
 O        -2.697897        -0.008236         1.190418
 C        -3.529443        -0.900792         1.712431
 C        -4.036519        -0.499303         3.008557
 O        -3.932391        -1.956317         1.106605
 H         2.471626        -0.958583         0.514399
 H         2.168769        -1.449944        -1.200095
 H         2.417421         0.260508        -0.887970
 H        -2.684861        -1.011581        -0.439071
 H        -3.563564         1.355989        -0.745364
 H        -2.017127         1.964911        -0.314942
 H        -2.203375         0.929825        -1.876212
 H        -4.151113        -1.368716         3.687441
 H        -3.470440         0.305918         3.490130
 H        -5.114138        -0.340255         2.814987
