19
Iteration:  4150
 C         1.085976        -1.504685         0.523465
 C        -0.077065        -0.745713         0.073852
 C        -1.005548        -0.104700        -0.366811
 C        -2.445772         0.211155        -0.483250
 C        -2.839128         1.545339        -1.173311
 O        -2.916356         0.221307         0.882299
 C        -2.991722        -0.964507         1.596767
 C        -3.606592        -0.879845         2.991422
 O        -2.387432        -1.996732         1.211193
 H         1.221838        -2.570038         0.364960
 H         1.885325        -1.053602        -0.019147
 H         1.280241        -1.324699         1.522530
 H        -3.057381        -0.483159        -0.989379
 H        -3.887338         1.540729        -1.675947
 H        -2.926233         2.398555        -0.542119
 H        -1.910456         1.674545        -1.805917
 H        -4.190749        -0.010736         3.335912
 H        -4.307867        -1.720852         3.053161
 H        -2.756642        -1.048562         3.625563
