19
Iteration:  3901charge 0 multiplicity 1
 C         1.989952        -0.569885        -0.145783
 C         0.582103        -0.296125        -0.159078
 C        -0.594023        -0.195569        -0.140556
 C        -2.006904        -0.310175        -0.128579
 C        -2.799981         0.814235        -0.803047
 O        -2.500073        -0.140287         1.319885
 C        -3.520737        -0.960780         1.593712
 C        -4.075021        -0.665938         2.977594
 O        -4.011625        -1.848434         0.798222
 H         2.267814        -1.351980        -0.954620
 H         2.791902         0.199051        -0.314137
 H         2.346554        -1.054714         0.763450
 H        -2.405939        -1.297867        -0.471045
 H        -3.818896         0.542229        -0.295387
 H        -2.552554         1.835926        -0.652833
 H        -2.948104         0.520927        -1.865648
 H        -4.489094        -1.585457         3.436049
 H        -3.197151        -0.299496         3.564384
 H        -4.810987         0.196355         2.885836
