19
Iteration:  4883
 C         1.886814        -0.706600        -0.482036
 C         0.486640        -0.609352        -0.196280
 C        -0.696398        -0.501863        -0.059833
 C        -2.131126        -0.244424        -0.141822
 C        -2.420299         1.186270        -0.733622
 O        -2.740990        -0.084577         1.116908
 C        -3.566972        -0.988020         1.715177
 C        -3.954718        -0.358047         3.064519
 O        -3.890095        -2.057318         1.107628
 H         2.182166        -0.540958        -1.526035
 H         2.571966        -0.158407         0.147375
 H         2.167343        -1.826146        -0.497638
 H        -2.469964        -0.962326        -0.853191
 H        -3.561321         1.185945        -0.904273
 H        -2.044649         2.046134        -0.087529
 H        -2.073625         1.381857        -1.736889
 H        -4.302149        -1.136403         3.823992
 H        -3.021345         0.124311         3.464030
 H        -4.710035         0.472757         2.912349
