19
Iteration:  3262charge 0 multiplicity 1
 C         1.533113        -0.908185         0.253895
 C         0.176945        -0.552395        -0.102761
 C        -1.042510        -0.529561        -0.162158
 C        -2.420110        -0.047359        -0.488857
 C        -2.461926         1.299941        -1.015941
 O        -3.265551        -0.050175         0.670986
 C        -3.146742        -0.991512         1.679483
 C        -4.231435        -0.741894         2.632381
 O        -2.286227        -1.797202         1.794723
 H         1.567136        -1.889600         0.829313
 H         2.299675        -0.877782        -0.516085
 H         1.770828        -0.217342         1.046803
 H        -2.761794        -0.858656        -1.154888
 H        -3.437261         1.679751        -1.354197
 H        -2.289384         1.920181        -0.244931
 H        -1.774043         1.346500        -1.765780
 H        -4.694578         0.241743         2.612013
 H        -5.043980        -1.442787         2.293200
 H        -3.771579        -1.023954         3.578214
