19
Iteration:  3024
 C         1.973807        -0.390294         0.256857
 C         0.546044        -0.345889         0.054183
 C        -0.658938        -0.188582        -0.105521
 C        -2.164512        -0.279832        -0.288868
 C        -2.618220         0.772480        -1.364041
 O        -2.827157        -0.041128         1.012477
 C        -3.559771        -0.961190         1.606666
 C        -3.765982        -0.736250         3.103502
 O        -3.926879        -2.045082         1.062256
 H         2.420590        -0.097486         1.308941
 H         2.281791        -1.439531        -0.101413
 H         2.445174         0.436856        -0.448128
 H        -2.607931        -1.276399        -0.440411
 H        -3.709481         0.672892        -1.532059
 H        -2.342968         1.782626        -0.949733
 H        -2.052787         0.542950        -2.269563
 H        -2.847805        -0.575084         3.627775
 H        -4.363528         0.186056         3.278608
 H        -4.302383        -1.631995         3.494081
