19
Iteration:   370
 C         1.575891        -0.199798         0.297152
 C         0.191574         0.142140         0.093176
 C        -0.997756         0.022251        -0.081088
 C        -2.422001        -0.152637        -0.334538
 C        -3.177614         1.038143        -1.139425
 O        -3.182878        -0.183626         0.911225
 C        -3.015967        -1.273811         1.597132
 C        -3.938236        -1.383709         2.776830
 O        -2.171337        -2.073809         1.251206
 H         2.170644         0.596916         0.516655
 H         1.708927        -0.845697         1.205658
 H         2.063615        -0.745437        -0.657176
 H        -2.533315        -1.105952        -0.824305
 H        -3.375947         1.867165        -0.436368
 H        -2.614120         1.419299        -2.025582
 H        -4.103606         0.554995        -1.628663
 H        -3.325093        -1.746035         3.572857
 H        -4.323319        -0.436241         3.082421
 H        -4.657503        -2.078816         2.408531
