19
Iteration:  3016charge 0 multiplicity 1
 C         1.977272        -0.330501         0.242836
 C         0.510406        -0.317210         0.014067
 C        -0.695494        -0.237010        -0.114759
 C        -2.133597        -0.283748        -0.262081
 C        -2.550155         0.738061        -1.318043
 O        -2.786607        -0.019401         1.021539
 C        -3.568564        -1.047730         1.581426
 C        -3.760105        -0.711612         3.111950
 O        -4.009589        -2.027815         1.064701
 H         2.298321        -0.113970         1.249136
 H         2.334452        -1.368839         0.003485
 H         2.563170         0.385614        -0.478240
 H        -2.471185        -1.325083        -0.606450
 H        -3.559601         0.586174        -1.550021
 H        -2.380707         1.811201        -0.949918
 H        -1.996733         0.700301        -2.325062
 H        -2.757806        -0.656713         3.627931
 H        -4.382602         0.199950         3.352091
 H        -4.383140        -1.519456         3.550439
