19
Iteration:  1451
 C         1.816329        -0.079947         0.116568
 C         0.344987        -0.033160        -0.001397
 C        -0.868484        -0.045076        -0.082749
 C        -2.305351        -0.078613        -0.283383
 C        -2.675624         0.971267        -1.290817
 O        -3.078821        -0.009161         1.033402
 C        -3.290143        -1.267775         1.689220
 C        -3.944385        -1.156062         3.016048
 O        -3.093106        -2.393911         1.187275
 H         2.307656         0.932159        -0.100036
 H         2.147019        -0.552810         0.980402
 H         2.113313        -0.738453        -0.845524
 H        -2.488074        -1.142999        -0.643392
 H        -2.313315         1.917792        -0.930471
 H        -2.080025         0.572532        -2.256477
 H        -3.752583         0.955460        -1.442027
 H        -3.311542        -1.640745         3.773196
 H        -4.079149        -0.133459         3.358362
 H        -4.818122        -1.784270         2.940571
