19
Iteration:  3581charge 0 multiplicity 1
 C         1.883063        -0.089192         0.325258
 C         0.550581        -0.320247        -0.031109
 C        -0.630144        -0.353667        -0.319026
 C        -2.016432        -0.611264        -0.328982
 C        -2.887704         0.266201        -1.227705
 O        -2.293165        -0.352655         1.177599
 C        -3.471133        -0.828558         1.644315
 C        -3.695223        -0.634920         3.076751
 O        -4.385854        -1.374896         0.972174
 H         2.534482        -0.484478        -0.471603
 H         2.017475         0.930178         0.183618
 H         2.308527        -0.389245         1.247263
 H        -2.506687        -1.551690        -0.607349
 H        -3.925535         0.021697        -1.085784
 H        -2.622840         1.400364        -1.180112
 H        -2.711191        -0.047678        -2.321392
 H        -4.495598         0.074667         3.310327
 H        -3.874780        -1.573722         3.678496
 H        -2.762537        -0.204331         3.492469
