19
Iteration:  4631
 C         1.795396        -0.097337        -0.163239
 C         0.457961        -0.676721        -0.051827
 C        -0.679922        -0.918836        -0.478334
 C        -2.083137        -0.565896        -0.174556
 C        -2.476174         0.756278        -0.901606
 O        -2.259974        -0.661169         1.227993
 C        -3.533264        -0.823407         1.728086
 C        -3.676725        -0.672650         3.176166
 O        -4.485440        -0.876528         0.951615
 H         1.559897         0.936731         0.195001
 H         2.518053        -0.454377         0.559580
 H         2.200089        -0.197186        -1.242464
 H        -2.888689        -1.290587        -0.643395
 H        -3.538629         0.876435        -0.863217
 H        -1.946903         1.730196        -0.783294
 H        -2.297328         0.482330        -2.052172
 H        -2.813127        -0.767874         3.857423
 H        -4.218114         0.293194         3.221473
 H        -4.407590        -1.359508         3.580756
