19
Iteration:  4998charge 0 multiplicity 1
 C         1.714623        -1.167727        -0.113067
 C         0.249685        -0.773736        -0.044302
 C        -0.836169        -0.251624        -0.139648
 C        -2.314526         0.018870        -0.325515
 C        -2.721145         1.380052        -1.019362
 O        -2.762816         0.185010         1.097956
 C        -3.284349        -0.918652         1.687381
 C        -3.913313        -0.709197         3.062803
 O        -3.191875        -2.067212         1.124547
 H         1.921074        -1.567570        -1.114574
 H         2.046620        -0.127077        -0.008616
 H         2.046354        -1.842645         0.598586
 H        -3.004119        -0.806557        -0.611164
 H        -3.656845         1.817811        -0.660940
 H        -1.789842         1.941693        -0.795090
 H        -2.766836         1.317662        -2.185374
 H        -4.956933        -0.343878         2.983174
 H        -4.016287        -1.583320         3.653224
 H        -3.371310         0.041432         3.604164
