19
Iteration:  3614charge 0 multiplicity 1
 C         2.153953        -0.090761         0.233494
 C         0.716516        -0.111796        -0.093325
 C        -0.499583        -0.230531        -0.236752
 C        -1.944255        -0.634967        -0.295583
 C        -2.910173         0.092708        -1.252790
 O        -2.440192        -0.498667         1.150034
 C        -3.665047        -0.855754         1.648011
 C        -3.661703        -0.695070         3.215097
 O        -4.650647        -1.174376         0.937414
 H         2.605725        -0.598723        -0.636083
 H         2.415693         0.915212         0.220065
 H         2.408364        -0.588926         1.151761
 H        -2.032253        -1.802703        -0.545097
 H        -3.877373        -0.278578        -1.042012
 H        -3.029007         1.275231        -1.057106
 H        -2.547979        -0.172484        -2.326214
 H        -4.445430         0.026332         3.502234
 H        -3.789067        -1.726389         3.701880
 H        -2.652468        -0.280322         3.328610
