19
Iteration:  3929
 C         2.033370        -0.666467        -0.095127
 C         0.509472        -0.503828        -0.014422
 C        -0.660701        -0.163419        -0.073142
 C        -2.175382        -0.137485        -0.188210
 C        -2.831395         1.003547        -1.023222
 O        -2.649229        -0.053706         1.191105
 C        -3.470582        -1.008579         1.601009
 C        -3.862913        -0.783414         3.060079
 O        -3.877575        -1.903089         0.886327
 H         2.444892        -1.412539        -0.783462
 H         2.605558         0.239907        -0.225127
 H         2.341134        -1.024573         0.914768
 H        -2.489559        -1.191333        -0.493047
 H        -3.877389         0.748358        -0.977933
 H        -2.645412         2.108768        -0.721934
 H        -2.652497         0.800131        -2.084197
 H        -3.848274        -1.758784         3.535605
 H        -3.213354        -0.080454         3.558678
 H        -4.842340        -0.332717         3.152024
