19
Iteration:  1819
 C         1.983529         0.484412        -0.053631
 C         0.521654         0.269731        -0.120030
 C        -0.474575        -0.397391        -0.207326
 C        -1.909605        -0.723953        -0.165301
 C        -2.792414         0.317431        -0.932953
 O        -2.298489        -0.664817         1.304860
 C        -3.546089        -1.032307         1.649818
 C        -4.141088        -0.805251         3.032052
 O        -4.232514        -1.645950         0.793613
 H         2.472073        -0.340343        -0.616333
 H         2.313848         1.519511        -0.457806
 H         2.253601         0.489559         0.972939
 H        -2.089811        -1.763865        -0.310234
 H        -2.768551         1.294831        -0.535534
 H        -2.547680         0.310187        -2.085191
 H        -3.906716         0.070128        -0.929274
 H        -3.554961        -1.126441         3.921338
 H        -4.432718         0.269614         3.184554
 H        -5.035817        -1.444231         3.163566
