19
Iteration:   753charge 0 multiplicity 1
 C         1.915363         0.939083        -0.069674
 C         0.525536         0.386949        -0.063460
 C        -0.579484        -0.108360        -0.038630
 C        -1.939775        -0.658339        -0.109053
 C        -2.675512         0.351129        -0.983139
 O        -2.561669        -0.631775         1.179624
 C        -3.620433        -1.287726         1.536814
 C        -3.828646        -1.150072         3.106984
 O        -4.199812        -1.986964         0.781222
 H         2.210948         1.202141        -1.012607
 H         1.876470         1.873326         0.616062
 H         2.588740         0.191760         0.300280
 H        -1.999454        -1.718156        -0.579056
 H        -2.558751         1.390251        -0.514828
 H        -2.209008         0.404354        -1.938377
 H        -3.779419         0.197789        -1.012946
 H        -3.555799        -2.071862         3.500863
 H        -3.220963        -0.462000         3.567550
 H        -4.845620        -1.129791         3.453983
