19
Iteration:  1796charge 0 multiplicity 1
 C         1.907884         0.607349        -0.130702
 C         0.545321         0.109465        -0.182129
 C        -0.574968        -0.395329        -0.104648
 C        -1.944565        -0.730544        -0.033212
 C        -2.631504         0.283406        -0.991362
 O        -2.333330        -0.574494         1.412620
 C        -3.572902        -1.089462         1.608980
 C        -4.052601        -0.884980         3.021512
 O        -4.277909        -1.565153         0.719444
 H         2.519365        -0.312108        -0.436818
 H         2.218193         1.522692        -0.740414
 H         2.130145         0.791039         0.855136
 H        -2.210473        -1.766139        -0.225305
 H        -2.607110         1.276616        -0.599633
 H        -2.111958         0.154792        -2.048221
 H        -3.694637         0.059611        -1.135730
 H        -3.743054        -1.674409         3.746360
 H        -3.827754         0.090852         3.467786
 H        -5.115921        -1.044897         3.060726
