19
Iteration:  2505
 C         1.865916        -0.339441         0.134088
 C         0.427781        -0.249881         0.002504
 C        -0.784830        -0.238114         0.056417
 C        -2.245204        -0.189889        -0.232763
 C        -2.502318         1.002727        -1.193749
 O        -3.154221         0.002772         0.861768
 C        -3.490395        -1.118818         1.590665
 C        -3.725617        -0.841422         3.051128
 O        -3.443141        -2.253447         1.104466
 H         2.144068        -1.138438        -0.473881
 H         2.358976         0.575792        -0.412511
 H         2.213808        -0.483185         1.288241
 H        -2.497820        -1.190285        -0.599357
 H        -2.767300         1.907678        -0.447462
 H        -1.701777         1.137854        -1.938747
 H        -3.443955         0.865930        -1.730110
 H        -3.742131        -1.807923         3.614874
 H        -2.958679        -0.148455         3.434592
 H        -4.703707        -0.351111         3.220757
