19
Iteration:   317
 C         1.486345        -0.118338         0.363206
 C         0.081575        -0.117365         0.085659
 C        -1.106443         0.076246        -0.076184
 C        -2.501621         0.053264        -0.422441
 C        -3.035464         1.152519        -1.251541
 O        -3.258914        -0.202669         0.785879
 C        -2.925551        -1.286189         1.613815
 C        -3.861801        -1.496978         2.901078
 O        -2.067894        -2.153907         1.376625
 H         2.058271         0.674757        -0.147543
 H         1.721621        -0.122203         1.440028
 H         1.805096        -1.064466        -0.033859
 H        -2.613882        -0.857899        -1.098380
 H        -2.883944         2.092832        -0.808545
 H        -2.419665         1.137720        -2.160879
 H        -4.094421         0.924712        -1.495408
 H        -3.549281        -2.458347         3.309728
 H        -3.618402        -0.678707         3.568341
 H        -4.890533        -1.435531         2.587510
