19
Iteration:  2829charge 0 multiplicity 1
 C         2.095667         0.186880        -0.381994
 C         0.781883        -0.178450         0.000560
 C        -0.429895        -0.266897         0.173416
 C        -1.872696        -0.650311         0.028531
 C        -2.507672         0.240278        -1.056206
 O        -2.449787        -0.654855         1.403355
 C        -3.764149        -0.935062         1.559699
 C        -4.110766        -0.833865         3.040875
 O        -4.619982        -1.197081         0.703680
 H         2.056256         1.395009        -0.461140
 H         2.843741        -0.269528         0.229622
 H         2.210529        -0.050016        -1.449283
 H        -2.075542        -1.631346        -0.413109
 H        -3.335060        -0.429742        -1.535748
 H        -2.919334         1.145145        -0.598496
 H        -1.811291         0.500466        -1.797960
 H        -4.749800        -1.552530         3.585071
 H        -3.079238        -0.797618         3.486525
 H        -4.450258         0.240936         3.193219
