19
Iteration:  3354
 C         1.735412        -0.971038         0.017313
 C         0.399797        -0.367990        -0.080298
 C        -0.788591        -0.219512        -0.093050
 C        -2.185734        -0.064259        -0.197630
 C        -2.712454         0.940035        -1.205535
 O        -3.083971         0.129792         0.977094
 C        -3.278001        -0.980444         1.718446
 C        -4.467877        -0.671316         2.624169
 O        -2.643889        -1.995000         1.594765
 H         1.778034        -2.053442        -0.005151
 H         2.255379        -0.556033        -0.883469
 H         2.231130        -0.892751         0.969718
 H        -2.640269        -0.998009        -0.633559
 H        -3.721926         1.188687        -1.207239
 H        -2.233981         1.913598        -0.794584
 H        -2.255673         0.730255        -2.230613
 H        -5.119297         0.118757         2.262234
 H        -5.091830        -1.533278         2.693743
 H        -4.059339        -0.382546         3.618109
