19
Iteration:  2567
 C         1.834392        -0.156470         0.209584
 C         0.423181        -0.350091         0.074057
 C        -0.786790        -0.288034        -0.144430
 C        -2.247511        -0.236215        -0.244815
 C        -2.653729         0.825612        -1.290557
 O        -2.621820        -0.009629         1.196705
 C        -3.470877        -1.113272         1.640696
 C        -3.910273        -0.828886         3.010054
 O        -3.620392        -2.108363         0.932600
 H         2.201355        -0.630098        -0.775887
 H         2.023259         0.883119         0.258640
 H         2.475733        -0.636060         0.885381
 H        -2.742947        -1.164276        -0.609537
 H        -1.901269         1.646815        -1.348416
 H        -2.763265         0.496756        -2.295137
 H        -3.606286         1.223141        -0.907945
 H        -3.111451        -1.273862         3.630622
 H        -4.213863         0.178020         3.262772
 H        -4.843888        -1.406073         3.098955
