19
Iteration:  1275charge 0 multiplicity 1
 C         1.437260        -0.370170         0.387153
 C         0.023950        -0.165658         0.239701
 C        -1.112817        -0.185046        -0.177770
 C        -2.479030        -0.144142        -0.518796
 C        -2.852913         1.250624        -1.101864
 O        -3.231179        -0.198378         0.756445
 C        -2.925283        -1.205738         1.594913
 C        -3.838958        -1.087279         2.865426
 O        -2.186895        -2.069187         1.296880
 H         1.852303        -0.776555        -0.629143
 H         1.943642         0.468088         0.660067
 H         1.503716        -1.116629         1.234285
 H        -2.739623        -1.011135        -1.179440
 H        -2.103355         2.002791        -0.766841
 H        -2.853559         1.225345        -2.254818
 H        -3.891462         1.431799        -0.802665
 H        -4.731249        -0.496070         2.743898
 H        -4.125549        -2.042047         3.226996
 H        -3.263673        -0.853131         3.765945
