19
Iteration:  1140charge 0 multiplicity 1
 C         1.691508         0.014333         0.357730
 C         0.269081        -0.128668         0.019343
 C        -0.901986        -0.043919        -0.306280
 C        -2.372022        -0.157354        -0.355244
 C        -2.936925         0.949047        -1.190308
 O        -2.932292        -0.076660         0.970925
 C        -3.184859        -1.240566         1.633900
 C        -3.812923        -1.200870         2.985114
 O        -2.926341        -2.281051         1.158669
 H         2.206861        -0.805779         0.800158
 H         2.392809         0.496207        -0.427370
 H         1.779680         0.829205         1.248133
 H        -2.592016        -1.233423        -0.708581
 H        -2.853915         1.918389        -0.559911
 H        -2.396651         0.962847        -2.205226
 H        -4.037357         0.833068        -1.526429
 H        -3.077211        -1.645963         3.641938
 H        -4.197131        -0.245474         3.331368
 H        -4.594771        -2.030277         2.915535
