19
Iteration:    32
 C         1.882965         0.797012         0.211124
 C         0.514640         0.234893        -0.090138
 C        -0.710386         0.172369        -0.197533
 C        -2.103076        -0.278501        -0.251750
 C        -3.094438         0.612780        -0.924836
 O        -2.530978        -0.423311         1.242180
 C        -3.392732        -1.430883         1.547199
 C        -3.888293        -1.418190         3.039373
 O        -3.633062        -2.347506         0.725973
 H         2.390937         0.567160         1.251902
 H         2.601318         0.410144        -0.476316
 H         1.938805         1.744383         0.083968
 H        -2.315581        -1.301202        -0.621461
 H        -3.671521         1.481021        -0.576541
 H        -2.614095         0.906730        -1.762829
 H        -3.922382         0.070687        -1.316489
 H        -4.782287        -2.072064         2.928008
 H        -3.321033        -1.676709         3.956398
 H        -4.269351        -0.421990         3.351228
