19
Iteration:  4232
 C         1.347063        -1.488250         0.104354
 C         0.239118        -0.518657        -0.064331
 C        -0.880166        -0.072447        -0.225473
 C        -2.319593         0.184266        -0.282107
 C        -2.725309         1.387125        -1.100025
 O        -3.026748         0.156478         0.906862
 C        -3.069658        -0.905406         1.729578
 C        -3.937363        -0.821249         2.933822
 O        -2.656799        -2.038771         1.335996
 H         0.629789        -2.296222         0.229391
 H         2.005666        -1.780594        -0.760332
 H         1.902595        -1.293983         1.087091
 H        -2.580312        -0.740244        -0.961274
 H        -3.706931         1.648907        -0.925772
 H        -1.914969         2.158896        -0.953376
 H        -2.760272         1.282090        -2.131522
 H        -4.924399        -0.704008         2.479650
 H        -3.838287        -1.704560         3.581308
 H        -3.796616         0.045687         3.643740
