19
Iteration:  1172
 C         1.601739        -0.159070         0.363134
 C         0.174994        -0.051539         0.131239
 C        -0.992266        -0.129079        -0.205883
 C        -2.400554        -0.039547        -0.350214
 C        -2.992799         1.067168        -1.269589
 O        -2.979770        -0.126192         0.996494
 C        -3.082781        -1.324428         1.615910
 C        -3.779160        -1.035596         2.890270
 O        -2.660181        -2.386290         1.141450
 H         1.988315        -1.104113         0.353572
 H         2.210925         0.510623        -0.394331
 H         1.774646         0.270002         1.432798
 H        -2.692067        -1.020977        -0.870670
 H        -3.447276         1.939383        -0.703123
 H        -2.169094         1.530378        -1.909873
 H        -3.870667         0.680893        -1.866978
 H        -3.172807        -0.649143         3.705998
 H        -4.600163        -0.313728         2.846151
 H        -4.209021        -1.927248         3.418747
