19
Iteration:  3797charge 0 multiplicity 1
 C         1.985202         0.168634        -0.638274
 C         0.715734        -0.348514         0.002361
 C        -0.429768        -0.682161         0.142472
 C        -1.889834        -0.668666         0.026237
 C        -2.392868         0.534544        -0.770573
 O        -2.400638        -0.610210         1.404425
 C        -3.764339        -0.949876         1.544640
 C        -4.176274        -0.477322         2.973421
 O        -4.553167        -1.364483         0.772984
 H         2.309027        -0.314699        -1.628976
 H         2.039051         1.281314        -0.782242
 H         2.925930        -0.140984        -0.003872
 H        -2.251376        -1.628787        -0.410902
 H        -3.385113         0.249584        -0.867564
 H        -2.358359         1.445370        -0.135814
 H        -1.914664         0.666392        -1.768146
 H        -5.253408        -0.559541         2.919914
 H        -3.712707        -1.183275         3.679946
 H        -3.827008         0.516356         3.127342
