19
Iteration:  4485charge 0 multiplicity 1
 C         2.090286        -0.794845        -0.323639
 C         0.736019        -0.297105        -0.222329
 C        -0.515760        -0.182722        -0.133021
 C        -1.943658        -0.416683        -0.119709
 C        -2.951990         0.495791        -0.830700
 O        -2.407707        -0.277057         1.380856
 C        -3.673358        -0.737623         1.670323
 C        -3.871850        -0.691095         3.120381
 O        -4.350665        -1.279525         0.771891
 H         2.688536        -0.647882         0.499394
 H         1.972354        -1.816501        -0.555348
 H         2.461473        -0.127343        -1.076333
 H        -2.212829        -1.466493        -0.322224
 H        -3.933533        -0.076367        -0.794408
 H        -2.962691         1.460111        -0.304587
 H        -2.757716         0.788083        -1.892674
 H        -3.013084        -1.278226         3.477818
 H        -3.785167         0.329692         3.506613
 H        -4.865130        -1.075969         3.400647
