19
Iteration:   516
 C         1.587522         0.508693         0.085171
 C         0.312524        -0.067207         0.042598
 C        -0.880522        -0.224154        -0.013265
 C        -2.275417        -0.191279        -0.439571
 C        -2.722740         1.027978        -1.250194
 O        -3.055005        -0.131744         1.097430
 C        -3.229528        -1.369903         1.625159
 C        -3.847719        -1.319954         3.043015
 O        -2.946250        -2.483163         1.158186
 H         2.159337         0.380133         1.127213
 H         2.216068         0.119368        -0.668157
 H         1.549253         1.550020        -0.077845
 H        -2.658566        -1.055715        -0.970628
 H        -2.836509         1.964513        -0.630366
 H        -2.050358         1.088088        -2.092327
 H        -3.747216         0.910988        -1.582803
 H        -3.679889        -0.222406         3.359023
 H        -4.950554        -1.528756         2.844865
 H        -3.398183        -2.096487         3.812044
