19
Iteration:   236charge 0 multiplicity 1
 C         1.609418         0.156094         0.467095
 C         0.211995        -0.002938        -0.069548
 C        -0.997468        -0.050855        -0.246655
 C        -2.505190        -0.158172        -0.429525
 C        -3.003425         1.186999        -1.028479
 O        -3.289264        -0.327762         0.780565
 C        -3.050756        -1.415893         1.542260
 C        -3.727613        -1.222747         2.912890
 O        -2.353349        -2.369152         1.300692
 H         2.297280         0.194452        -0.353465
 H         1.587244         1.149815         0.958632
 H         1.848344        -0.637997         1.399333
 H        -2.862158        -0.935626        -1.096514
 H        -2.924387         1.962847        -0.117640
 H        -2.312082         1.485094        -1.921928
 H        -4.177331         1.271900        -1.246780
 H        -4.394568        -2.112053         3.057926
 H        -2.892929        -1.157487         3.653888
 H        -4.407177        -0.338478         2.898349
