19
Iteration:  3839charge 0 multiplicity 1
 C         2.201850        -0.150289        -0.421066
 C         0.717015        -0.319293        -0.325661
 C        -0.468016        -0.333270         0.028024
 C        -1.957554        -0.603854         0.040880
 C        -2.675501         0.624257        -0.682745
 O        -2.405931        -0.532906         1.397519
 C        -3.738537        -0.969328         1.605259
 C        -4.236147        -0.466827         2.958841
 O        -4.324988        -1.573650         0.766929
 H         2.368759        -0.690229        -1.288604
 H         2.408113         0.902000        -0.589328
 H         2.687383        -0.597206         0.456288
 H        -2.356249        -1.482655        -0.532239
 H        -3.722004         0.385320        -0.944855
 H        -2.576265         1.566935        -0.118965
 H        -2.198179         0.888265        -1.687104
 H        -5.271302        -0.761069         3.074767
 H        -3.649272        -0.821981         3.812713
 H        -4.217829         0.595559         3.067333
