19
Iteration:  4626
 C         1.761621        -0.096635        -0.143458
 C         0.450751        -0.709384        -0.069867
 C        -0.677875        -0.902657        -0.451608
 C        -2.129353        -0.554627        -0.176120
 C        -2.409289         0.745518        -0.930627
 O        -2.296416        -0.649971         1.244907
 C        -3.538203        -0.801661         1.676143
 C        -3.655975        -0.715410         3.193146
 O        -4.453670        -0.880951         0.960087
 H         1.594196         0.984239        -0.031301
 H         2.526572        -0.494347         0.549132
 H         2.003399         0.019893        -1.177866
 H        -2.715669        -1.247258        -0.680421
 H        -3.536725         0.789531        -0.883321
 H        -1.946806         1.698052        -0.701967
 H        -2.306190         0.457022        -1.976107
 H        -2.782467        -0.599045         3.842701
 H        -4.099499         0.302326         3.291233
 H        -4.465691        -1.336203         3.636497
