19
Iteration:  4402charge 0 multiplicity 1
 C         1.998833        -0.634379        -0.465817
 C         0.539966        -0.672130        -0.161314
 C        -0.666736        -0.499264        -0.119038
 C        -2.111626        -0.211770        -0.125322
 C        -2.515334         1.047567        -0.800860
 O        -2.719298         0.007794         1.189743
 C        -3.530357        -0.915540         1.702268
 C        -4.026254        -0.499406         3.009815
 O        -3.926947        -1.967734         1.120865
 H         2.485991        -0.991000         0.524174
 H         2.225833        -1.444781        -1.228655
 H         2.470570         0.294619        -0.916180
 H        -2.716342        -1.059888        -0.504700
 H        -3.537779         1.352557        -0.723204
 H        -1.958508         1.861094        -0.318155
 H        -2.239522         0.964315        -1.892752
 H        -4.171301        -1.347883         3.667323
 H        -3.489936         0.309694         3.477309
 H        -5.097470        -0.299216         2.796644
