19
Iteration:  3918charge 0 multiplicity 1
 C         2.004302        -0.655684        -0.113211
 C         0.579018        -0.421699        -0.079956
 C        -0.613010        -0.187861        -0.051298
 C        -2.108652        -0.172603        -0.095677
 C        -2.918035         0.856136        -0.932255
 O        -2.563067        -0.050407         1.218674
 C        -3.521368        -0.985870         1.564791
 C        -3.896113        -0.732214         2.954456
 O        -3.941603        -1.891164         0.878742
 H         2.373244        -1.345767        -0.875188
 H         2.472200         0.315366        -0.256506
 H         2.350038        -1.008627         0.886561
 H        -2.467652        -1.124393        -0.569689
 H        -3.909503         0.975457        -0.623686
 H        -2.383069         1.779597        -0.536415
 H        -2.691154         0.859128        -1.988515
 H        -4.112262        -1.698922         3.400014
 H        -3.131733        -0.199833         3.491141
 H        -4.841260        -0.218468         2.870115
