19
Iteration:    82
 C         1.745400         0.463145         0.265403
 C         0.320564         0.506915         0.075082
 C        -0.805759         0.091777        -0.167502
 C        -2.201849        -0.230608        -0.241394
 C        -3.086269         0.737855        -1.000831
 O        -2.713644        -0.353025         1.079694
 C        -3.241778        -1.505556         1.543127
 C        -3.765877        -1.277307         2.930746
 O        -3.308629        -2.480026         0.843506
 H         2.021074        -0.401961         0.814903
 H         2.341239         0.491956        -0.666526
 H         2.171373         1.324129         1.003860
 H        -2.371051        -1.237893        -0.660081
 H        -2.958785         1.840032        -0.711516
 H        -2.797614         0.854929        -2.128526
 H        -4.189824         0.451107        -0.987510
 H        -4.648561        -1.883093         3.200692
 H        -3.011129        -1.678030         3.623066
 H        -3.861756        -0.217908         3.194770
