19
Iteration:  1304charge 0 multiplicity 1
 C         1.557103        -0.369513         0.469193
 C         0.147129        -0.216925         0.017069
 C        -1.036726        -0.306995        -0.329851
 C        -2.513902        -0.093321        -0.402214
 C        -2.938421         1.233157        -1.135229
 O        -3.235881        -0.040371         0.826105
 C        -3.047975        -1.163529         1.586156
 C        -3.880628        -1.215181         2.857570
 O        -2.190917        -2.056549         1.341651
 H         2.213617        -0.415919        -0.322149
 H         1.785995         0.523262         1.243472
 H         1.545018        -1.322560         1.182317
 H        -2.919264        -0.911089        -1.077954
 H        -2.414972         2.113513        -0.594396
 H        -2.682763         1.114462        -2.132536
 H        -4.085444         1.379160        -1.015149
 H        -4.985445        -1.160898         2.722061
 H        -3.572454        -2.167487         3.410625
 H        -3.564180        -0.348764         3.459440
