19
Iteration:   887charge 0 multiplicity 1
 C         2.000063         0.913893        -0.244018
 C         0.586467         0.467704        -0.089796
 C        -0.543992         0.026391        -0.004205
 C        -1.857098        -0.649481        -0.014360
 C        -2.724133         0.289932        -0.940448
 O        -2.378826        -0.790060         1.353736
 C        -3.601977        -1.343674         1.580446
 C        -4.174804        -1.137907         3.044808
 O        -4.262007        -1.849350         0.720816
 H         2.136671         1.932345        -0.075194
 H         2.631252         0.410433         0.514874
 H         2.495065         0.644520        -1.322637
 H        -1.741417        -1.648963        -0.605757
 H        -2.458422         1.374126        -0.814706
 H        -2.595367        -0.173454        -2.000058
 H        -3.791314         0.262254        -0.596297
 H        -4.017676        -0.177946         3.563245
 H        -5.112534        -1.667645         2.867311
 H        -3.613374        -1.872169         3.610239
