19
Iteration:  2127charge 0 multiplicity 1
 C         1.672117        -0.426760         0.283311
 C         0.256777        -0.253558         0.078249
 C        -0.948169        -0.332570        -0.162568
 C        -2.367999        -0.156725        -0.345307
 C        -2.833282         1.087973        -1.190455
 O        -2.852525         0.074618         1.071425
 C        -3.133143        -1.147256         1.644425
 C        -4.068220        -0.830820         2.750679
 O        -2.836342        -2.280684         1.177880
 H         2.167880         0.614556         0.494405
 H         1.960352        -1.155007         1.072574
 H         2.119285        -0.742181        -0.682724
 H        -2.760402        -1.119451        -0.605748
 H        -2.346457         1.970806        -0.582113
 H        -2.522983         0.934435        -2.211146
 H        -3.857166         1.314422        -0.999284
 H        -3.532819        -1.021034         3.727647
 H        -4.182656         0.256454         2.652201
 H        -5.038560        -1.381825         2.767428
