19
Iteration:   962
 C         1.924306         0.702526        -0.169534
 C         0.592814         0.244862         0.057085
 C        -0.558433        -0.104249        -0.079980
 C        -2.017270        -0.410393        -0.039338
 C        -2.895572         0.413097        -1.072783
 O        -2.488022        -0.391092         1.301886
 C        -3.481441        -1.249786         1.598279
 C        -4.057580        -1.286448         2.993816
 O        -3.950917        -2.046223         0.829115
 H         2.322008         1.325846         0.566348
 H         2.664233        -0.219442        -0.086704
 H         2.060735         1.229323        -1.154329
 H        -2.044392        -1.493193        -0.389366
 H        -3.484528         1.167154        -0.518288
 H        -2.160610         0.958951        -1.720023
 H        -3.652625        -0.226559        -1.522892
 H        -5.010496        -0.746725         2.797769
 H        -4.381601        -2.313884         3.154482
 H        -3.467052        -0.740501         3.652832
