19
Iteration:  4358
 C         1.777616        -0.677697        -0.434178
 C         0.322334        -0.589407        -0.183438
 C        -0.868535        -0.532118        -0.046826
 C        -2.237152        -0.111162        -0.210829
 C        -2.017975         1.228745        -0.932107
 O        -2.872652         0.025138         1.085764
 C        -3.492701        -1.069481         1.713037
 C        -4.041420        -0.504902         3.019559
 O        -3.642728        -2.168356         1.331673
 H         2.207513        -1.115594         0.518699
 H         2.005717        -1.138550        -1.414498
 H         2.004015         0.401067        -0.404410
 H        -2.856317        -0.787059        -0.798861
 H        -2.839901         1.946420        -0.806142
 H        -1.239117         1.826350        -0.509920
 H        -1.894451         1.026626        -2.036471
 H        -4.543376        -1.273587         3.586199
 H        -3.211440        -0.137802         3.602586
 H        -4.803137         0.264894         2.813464
