19
Iteration:   189charge 0 multiplicity 1
 C         1.562983         0.337428         0.310685
 C         0.089137         0.071089         0.245303
 C        -1.049769        -0.175177        -0.095312
 C        -2.464754        -0.211101        -0.459581
 C        -2.924752         1.167147        -1.187742
 O        -3.082159        -0.214957         0.942355
 C        -3.042222        -1.381987         1.587888
 C        -3.634722        -1.308962         2.910317
 O        -2.630779        -2.440516         1.128563
 H         2.038598        -0.422326        -0.468170
 H         1.863692         1.380255         0.109156
 H         1.876497         0.055151         1.342777
 H        -2.735973        -1.179555        -0.927980
 H        -3.028207         1.927080        -0.460630
 H        -2.048992         1.298072        -1.914504
 H        -3.841931         1.088779        -1.712697
 H        -4.425695        -2.089953         2.889599
 H        -2.760307        -1.585757         3.496499
 H        -4.046497        -0.317968         3.093331
