19
Iteration:  4247charge 0 multiplicity 1
 C         1.399275        -1.419170         0.061276
 C         0.220883        -0.568730        -0.087140
 C        -0.892025        -0.084238        -0.196187
 C        -2.361188         0.100757        -0.359483
 C        -2.617350         1.443375        -1.111781
 O        -3.022262         0.210869         1.016367
 C        -3.151993        -0.974707         1.695011
 C        -3.954019        -0.763253         2.901432
 O        -2.715206        -2.110654         1.393008
 H         1.295644        -2.499032         0.273511
 H         1.945033        -1.348268        -0.891057
 H         2.209199        -1.049034         0.776189
 H        -2.909950        -0.753623        -0.753429
 H        -3.705152         1.872698        -0.931352
 H        -1.879640         2.169419        -0.889071
 H        -2.414329         1.167474        -2.188785
 H        -5.016421        -0.913720         2.653356
 H        -3.738678        -1.583635         3.582903
 H        -3.788297         0.204889         3.309560
