19
Iteration:  3257charge 0 multiplicity 1
 C         1.493327        -0.900262         0.286673
 C         0.175328        -0.563178        -0.125415
 C        -1.057317        -0.528144        -0.156374
 C        -2.386760        -0.062841        -0.457134
 C        -2.460380         1.288714        -0.999288
 O        -3.280466        -0.083210         0.653285
 C        -3.174848        -0.974809         1.675599
 C        -4.224425        -0.735352         2.637325
 O        -2.268051        -1.766185         1.756219
 H         1.620698        -1.799857         0.827820
 H         2.142678        -0.883330        -0.618658
 H         1.832334        -0.187068         1.139581
 H        -2.914032        -0.794797        -1.108400
 H        -3.406812         1.641971        -1.411287
 H        -2.050349         2.083289        -0.138068
 H        -1.649132         1.267562        -1.888691
 H        -4.623362         0.286940         2.739280
 H        -4.945121        -1.492773         2.371230
 H        -3.688266        -1.153347         3.524388
