19
Iteration:  2610charge 0 multiplicity 1
 C         2.025616        -0.148364         0.305889
 C         0.582731        -0.205103        -0.156056
 C        -0.644254        -0.289808        -0.279498
 C        -2.095768        -0.383300        -0.254396
 C        -2.862654         0.822961        -0.970978
 O        -2.622543        -0.141558         1.112397
 C        -3.449246        -1.118544         1.524332
 C        -3.976930        -0.707082         2.929060
 O        -3.902938        -2.118770         1.045311
 H         2.727126        -0.185969        -0.723532
 H         2.233016         0.773937         0.826025
 H         2.311997        -0.958013         0.905768
 H        -2.327373        -1.433105        -0.553945
 H        -2.244130         1.781781        -0.912394
 H        -3.016735         0.847435        -2.061864
 H        -3.890005         0.890099        -0.539406
 H        -3.170895        -0.131417         3.468663
 H        -4.751375         0.085358         2.693325
 H        -4.518221        -1.500779         3.507661
