19
Iteration:  1224
 C         1.616204        -0.340140         0.438023
 C         0.200643        -0.133435         0.042676
 C        -1.005971        -0.014703        -0.040558
 C        -2.407117        -0.049234        -0.456822
 C        -2.989447         1.226133        -1.142274
 O        -3.372795        -0.263887         0.623222
 C        -3.093608        -1.238053         1.608319
 C        -3.675270        -1.070666         2.978042
 O        -2.396473        -2.246366         1.325423
 H         1.937533        -1.211394        -0.249363
 H         2.266224         0.553737         0.055410
 H         1.736467        -0.557264         1.433071
 H        -2.460913        -0.790888        -1.244786
 H        -3.009874         2.127227        -0.630332
 H        -2.305902         1.396489        -2.051692
 H        -3.903788         0.904073        -1.521713
 H        -3.739818        -0.009173         3.349336
 H        -4.765420        -1.350358         3.082266
 H        -3.274390        -1.801335         3.785613
