19
Iteration:  2654
 C         1.979459        -0.163427         0.126983
 C         0.567693        -0.078378        -0.028896
 C        -0.629533        -0.124476        -0.219472
 C        -2.096138        -0.408516        -0.245325
 C        -2.830730         0.772474        -1.057593
 O        -2.347913        -0.482707         1.224018
 C        -3.519022        -1.149803         1.643114
 C        -4.050539        -0.550305         2.878154
 O        -4.052051        -2.026004         0.982867
 H         2.602633         0.267153        -0.858590
 H         2.278067         0.445260         0.937226
 H         2.059592        -1.160869         0.402908
 H        -2.316640        -1.446393        -0.563171
 H        -3.017329         1.588214        -0.204404
 H        -2.061271         1.220528        -1.720719
 H        -3.718801         0.459350        -1.658271
 H        -3.623111         0.510200         3.033768
 H        -5.169075        -0.425592         2.772024
 H        -3.786640        -1.240131         3.705482
