19
Iteration:  2803charge 0 multiplicity 1
 C         2.108277         0.181852        -0.442935
 C         0.735647        -0.175294         0.009389
 C        -0.431817        -0.337789         0.340308
 C        -1.897402        -0.669785         0.016417
 C        -2.493556         0.208658        -0.977559
 O        -2.562327        -0.446945         1.322218
 C        -3.811786        -0.890665         1.486666
 C        -3.980028        -0.870035         3.051750
 O        -4.581665        -1.290592         0.678277
 H         1.987130         1.230469        -0.630538
 H         2.972224        -0.039499         0.333216
 H         2.373841        -0.253042        -1.528782
 H        -2.118651        -1.698075        -0.349909
 H        -3.194822        -0.290526        -1.627766
 H        -3.059984         1.012631        -0.433263
 H        -1.607361         0.630798        -1.550364
 H        -4.935860        -1.317629         3.402140
 H        -3.088236        -1.310984         3.480125
 H        -3.900552         0.148625         3.415104
