19
Iteration:  2692
 C         2.171712        -0.008138        -0.033925
 C         0.679256        -0.148300        -0.029140
 C        -0.543558        -0.284100        -0.135728
 C        -2.016651        -0.486956        -0.152484
 C        -2.858929         0.563552        -0.903469
 O        -2.516108        -0.365001         1.251782
 C        -3.617760        -1.043633         1.551165
 C        -4.116078        -0.597152         2.955127
 O        -4.128090        -1.860352         0.806845
 H         2.612433         0.536463        -0.818811
 H         2.626677         0.362105         0.980226
 H         2.655730        -1.085368        -0.208707
 H        -2.369179        -1.503417        -0.453994
 H        -3.584683         0.845898        -0.163790
 H        -2.317731         1.432632        -1.355034
 H        -3.554638         0.169760        -1.665659
 H        -4.076873         0.444519         3.148040
 H        -4.990938        -1.020355         3.433057
 H        -3.174971        -0.860159         3.462277
