19
Iteration:   981charge 0 multiplicity 1
 C         1.966513         0.648974        -0.093063
 C         0.536447         0.194352        -0.093172
 C        -0.649003        -0.132033        -0.010482
 C        -2.078634        -0.393249        -0.157701
 C        -2.847755         0.528944        -1.124912
 O        -2.540420        -0.304851         1.345931
 C        -3.400467        -1.335212         1.631198
 C        -4.088221        -1.235553         3.040376
 O        -3.835520        -2.126348         0.810289
 H         2.178543         1.159516         0.935798
 H         2.699324        -0.208688        -0.254055
 H         2.041838         1.328195        -0.821107
 H        -2.300360        -1.375571        -0.327687
 H        -3.474483         1.288841        -0.660274
 H        -2.175095         0.923067        -1.768512
 H        -3.588073        -0.115286        -1.640104
 H        -5.155037        -1.019559         2.884669
 H        -3.901041        -2.275465         3.421834
 H        -3.670334        -0.463324         3.744555
