19
Iteration:   801
 C         1.698908         1.119698        -0.153906
 C         0.601768         0.136228        -0.049150
 C        -0.499113        -0.364855        -0.060565
 C        -1.963031        -0.634636        -0.070678
 C        -2.580639         0.369059        -0.979273
 O        -2.389114        -0.550823         1.313597
 C        -3.609406        -1.267099         1.624057
 C        -3.971439        -1.258939         3.081515
 O        -4.211547        -1.832300         0.684022
 H         1.408627         1.838612        -0.982923
 H         1.785718         1.591892         0.749044
 H         2.707599         0.563720        -0.501493
 H        -2.252497        -1.631018        -0.406283
 H        -2.945823         1.334996        -0.604682
 H        -1.754022         0.654086        -1.728870
 H        -3.479093        -0.044572        -1.485721
 H        -3.162550        -1.503380         3.875772
 H        -4.206693        -0.175399         3.417463
 H        -4.716935        -2.043962         3.320046
