19
Iteration:  2662
 C         2.036107        -0.136405         0.097783
 C         0.544306        -0.060153        -0.014194
 C        -0.662394        -0.150755        -0.194585
 C        -2.093515        -0.389697        -0.280659
 C        -2.770798         0.700732        -0.995110
 O        -2.384418        -0.475012         1.258693
 C        -3.436512        -1.152427         1.611168
 C        -4.080290        -0.537045         2.826932
 O        -4.104841        -1.971466         0.981229
 H         2.437802         0.174199        -0.832639
 H         2.427621         0.376756         0.977462
 H         2.348933        -1.193584         0.187621
 H        -2.378113        -1.396214        -0.574241
 H        -3.239141         1.334844        -0.309749
 H        -2.220061         1.446228        -1.622712
 H        -3.628951         0.212419        -1.549614
 H        -3.627273         0.445943         2.978145
 H        -5.150884        -0.690371         2.971199
 H        -3.683977        -1.202452         3.640113
