19
Iteration:  1792charge 0 multiplicity 1
 C         1.907505         0.619243        -0.160517
 C         0.546257         0.067674        -0.179156
 C        -0.553495        -0.377186        -0.088420
 C        -1.950360        -0.729381        -0.012946
 C        -2.616704         0.274341        -0.999292
 O        -2.365694        -0.573452         1.420630
 C        -3.596119        -1.086521         1.574606
 C        -4.023243        -0.896115         3.028084
 O        -4.276778        -1.557734         0.724846
 H         2.558719        -0.262177        -0.443113
 H         2.143592         1.461657        -0.729749
 H         2.037097         0.906464         0.955147
 H        -2.129262        -1.833716        -0.057122
 H        -2.577415         1.379907        -0.677001
 H        -2.195406         0.242938        -1.947944
 H        -3.656534         0.080526        -1.200891
 H        -3.757889        -1.717858         3.677464
 H        -3.694058         0.030713         3.468470
 H        -5.119267        -0.992850         2.996517
