19
Iteration:  2812charge 0 multiplicity 1
 C         2.091443         0.219000        -0.447123
 C         0.733867        -0.224659         0.033051
 C        -0.476001        -0.325682         0.264734
 C        -1.816383        -0.638368         0.085289
 C        -2.529098         0.216271        -1.007518
 O        -2.555894        -0.539786         1.336576
 C        -3.827765        -0.898959         1.551767
 C        -3.937321        -0.808581         3.078365
 O        -4.616291        -1.269341         0.630923
 H         2.156909         1.242540        -0.585008
 H         2.845021        -0.161475         0.327248
 H         2.331730        -0.203871        -1.501510
 H        -1.684442        -1.701689        -0.283927
 H        -3.067656        -0.330643        -1.692556
 H        -2.885710         1.187905        -0.549068
 H        -1.764278         0.738926        -1.715902
 H        -4.778340        -1.468792         3.232719
 H        -3.145718        -1.342180         3.577125
 H        -4.244356         0.191174         3.336513
