19
Iteration:  4212
 C         1.175309        -1.612965         0.252788
 C         0.293692        -0.530676        -0.090010
 C        -0.807336        -0.034117        -0.162371
 C        -2.345395         0.165359        -0.436257
 C        -2.837407         1.377238        -1.123733
 O        -3.026728         0.224211         1.006949
 C        -3.125809        -0.932781         1.622904
 C        -3.910238        -0.830412         2.931900
 O        -2.460361        -1.981555         1.266275
 H         0.665648        -2.586163         0.221288
 H         1.907243        -1.473895        -0.595913
 H         1.764854        -1.427501         1.266053
 H        -2.582791        -0.754719        -1.054725
 H        -3.905235         1.502968        -0.752202
 H        -2.318826         2.262033        -0.732255
 H        -2.931610         1.324251        -2.191340
 H        -4.891420        -0.403602         2.746087
 H        -3.911760        -1.751537         3.518123
 H        -3.380708        -0.108140         3.580475
