19
Iteration:  3050
 C         1.907693        -0.535554         0.288939
 C         0.444277        -0.386048         0.162852
 C        -0.748334        -0.195709        -0.039717
 C        -2.149803        -0.164211        -0.295657
 C        -2.757699         0.750872        -1.356108
 O        -2.849707         0.134182         0.977963
 C        -3.410384        -1.018473         1.538207
 C        -3.826562        -0.702446         3.067303
 O        -3.603764        -2.088927         1.018969
 H         2.293481        -0.608860         1.274762
 H         2.106126        -1.516653        -0.196410
 H         2.480477         0.253807        -0.380882
 H        -2.601265        -1.196740        -0.404176
 H        -3.789295         0.669512        -1.032041
 H        -2.556371         1.828083        -1.168434
 H        -2.602266         0.402113        -2.442171
 H        -2.968784        -0.318813         3.740879
 H        -4.575245         0.133077         3.120085
 H        -4.142885        -1.677529         3.463630
