19
Iteration:   453
 C         1.716157         0.173552         0.245996
 C         0.288350         0.183059        -0.107128
 C        -0.901833        -0.159950        -0.159953
 C        -2.383351        -0.185591        -0.370892
 C        -3.038646         1.025547        -0.901830
 O        -3.111237        -0.235500         0.872206
 C        -3.133311        -1.344586         1.630814
 C        -3.968053        -1.212855         2.826953
 O        -2.550236        -2.366025         1.277430
 H         1.982848         0.623251         1.353923
 H         2.095875        -0.859228         0.139946
 H         2.285273         0.777381        -0.446957
 H        -2.662062        -1.144522        -1.021883
 H        -2.645263         2.090605        -0.754856
 H        -2.759435         0.896799        -1.930463
 H        -4.142021         0.828157        -0.940695
 H        -3.459622        -0.692501         3.685256
 H        -4.968017        -0.766429         2.556529
 H        -4.170613        -2.226561         3.315860
