19
Iteration:    39charge 0 multiplicity 1
 C         1.882202         0.727858         0.236075
 C         0.501459         0.264722        -0.093065
 C        -0.724875         0.157638        -0.205640
 C        -2.134847        -0.293017        -0.235840
 C        -3.134232         0.622682        -0.934794
 O        -2.573261        -0.419430         1.198204
 C        -3.369840        -1.454176         1.554891
 C        -3.906285        -1.376414         3.057022
 O        -3.545471        -2.326038         0.732433
 H         2.207061         0.395779         1.252166
 H         2.587122         0.391992        -0.561391
 H         1.910569         1.964526         0.279337
 H        -2.127629        -1.295085        -0.710062
 H        -3.405825         1.532863        -0.290666
 H        -2.636593         1.107313        -1.852824
 H        -3.909069        -0.088866        -1.330015
 H        -4.782346        -2.064308         3.101824
 H        -3.155009        -1.816512         3.742209
 H        -4.239466        -0.343006         3.244083
