19
Iteration:  3458
 C         1.941300        -0.441312         0.020261
 C         0.449371        -0.274487         0.003999
 C        -0.745582        -0.493191         0.054338
 C        -2.179826        -0.437186        -0.330694
 C        -2.535951         0.890267        -1.211405
 O        -2.902238        -0.004217         0.911705
 C        -3.424742        -1.022976         1.686104
 C        -3.912493        -0.400115         2.966520
 O        -3.700903        -2.162601         1.296836
 H         2.304763        -1.244603        -0.546656
 H         2.423770         0.404104        -0.315833
 H         2.312383        -0.387831         1.033254
 H        -2.661897        -1.293398        -0.772394
 H        -3.632815         1.215843        -1.484356
 H        -2.054244         1.675039        -0.713424
 H        -1.905815         0.870420        -2.110778
 H        -4.799185         0.178720         2.591213
 H        -4.310180        -1.227207         3.542205
 H        -3.240575         0.278494         3.498579
