19
Iteration:  2557
 C         1.845985        -0.180891         0.114835
 C         0.365755        -0.343906         0.158452
 C        -0.810303        -0.299941        -0.135011
 C        -2.249264        -0.176796        -0.248330
 C        -2.588593         0.828336        -1.256353
 O        -2.742166         0.005426         1.154221
 C        -3.364600        -1.081792         1.604345
 C        -3.890963        -0.908010         2.999098
 O        -3.622577        -2.092842         0.991919
 H         2.429381        -0.537288        -0.737859
 H         2.122230         0.863379         0.120799
 H         2.079220        -0.638932         1.075109
 H        -2.627972        -1.178729        -0.547411
 H        -1.848764         1.682591        -1.363528
 H        -2.570394         0.269123        -2.150930
 H        -3.579371         1.235909        -1.282849
 H        -3.300244        -1.394307         3.797463
 H        -3.824769         0.140114         3.217892
 H        -4.842381        -1.423318         3.012687
