19
Iteration:   903charge 0 multiplicity 1
 C         1.966694         0.824968        -0.217962
 C         0.572218         0.457488        -0.164390
 C        -0.507908         0.009474         0.122644
 C        -1.847087        -0.492710        -0.010075
 C        -2.795117         0.258713        -0.917029
 O        -2.351828        -0.724574         1.405137
 C        -3.627296        -1.319645         1.526483
 C        -4.051689        -1.196195         2.925772
 O        -4.278800        -1.914110         0.708276
 H         2.038289         1.971721         0.091813
 H         2.541132         0.104745         0.386588
 H         2.241961         0.686074        -1.199924
 H        -1.750296        -1.476715        -0.292094
 H        -2.574711         1.306456        -0.858851
 H        -2.619926        -0.022231        -1.929186
 H        -3.825339        -0.035094        -0.839268
 H        -4.091364        -0.071916         2.929980
 H        -5.071019        -1.550611         3.212571
 H        -3.419185        -1.545365         3.820730
