19
Iteration:  1267charge 0 multiplicity 1
 C         1.391837        -0.388797         0.383706
 C         0.026404        -0.172441         0.222474
 C        -1.112332        -0.112673        -0.123955
 C        -2.491870        -0.055864        -0.485468
 C        -2.844424         1.219482        -1.121858
 O        -3.230108        -0.239130         0.685712
 C        -2.959504        -1.232785         1.597641
 C        -3.842363        -1.069703         2.916804
 O        -2.153914        -2.135127         1.290838
 H         1.985895        -0.892555        -0.565302
 H         1.901662         0.595794         0.536856
 H         1.662715        -0.992560         1.151376
 H        -2.681600        -0.939598        -1.039529
 H        -2.182989         1.939800        -0.792866
 H        -2.724026         1.200834        -2.256169
 H        -3.784235         1.554851        -0.866456
 H        -4.586277        -0.230943         2.900850
 H        -4.381037        -2.024556         3.148159
 H        -3.152992        -0.812642         3.801508
