19
Iteration:  1974charge 0 multiplicity 1
 C         1.955794         0.121869         0.047656
 C         0.561652        -0.342160         0.043741
 C        -0.689666        -0.195389        -0.041338
 C        -2.138610        -0.289781        -0.188922
 C        -2.687574         0.682732        -1.211945
 O        -2.869152        -0.064654         1.045164
 C        -3.493461        -1.115138         1.642623
 C        -3.911933        -0.910001         3.076877
 O        -3.705784        -2.154778         0.965734
 H         2.125483         0.753866        -0.901186
 H         2.040352         0.854353         0.892497
 H         2.820009        -0.632094         0.054156
 H        -2.372036        -1.311223        -0.388747
 H        -2.170559         1.737289        -1.350063
 H        -2.587169         0.146060        -2.104700
 H        -3.776638         0.613482        -1.020227
 H        -4.937364        -0.486346         3.109197
 H        -3.910698        -1.774932         3.744333
 H        -3.292029        -0.158295         3.684037
