19
Iteration:  2960
 C         1.937281         0.084750         0.104225
 C         0.584963        -0.302354         0.034147
 C        -0.573000        -0.566626        -0.204580
 C        -2.028426        -0.564159        -0.239477
 C        -2.479286         0.656074        -1.088276
 O        -2.566250        -0.315945         1.153141
 C        -3.652702        -0.950972         1.549018
 C        -3.821539        -0.686496         3.071110
 O        -4.352422        -1.724465         0.946287
 H         2.123950         0.644088         0.907578
 H         2.682331        -0.725162         0.149938
 H         2.094793         0.436335        -0.948751
 H        -2.414892        -1.511673        -0.664460
 H        -3.573923         0.701444        -1.152771
 H        -2.322828         1.619390        -0.508212
 H        -2.055178         0.804453        -2.082496
 H        -3.039910        -1.103631         3.713026
 H        -3.696428         0.433400         3.116051
 H        -4.824243        -1.038841         3.482459
