19
Iteration:   944charge 0 multiplicity 1
 C         1.968541         0.695747        -0.189440
 C         0.575799         0.309967         0.035532
 C        -0.597315         0.008534        -0.015960
 C        -1.913552        -0.552026        -0.114355
 C        -2.851874         0.301036        -0.917769
 O        -2.507604        -0.421070         1.377037
 C        -3.594011        -1.292625         1.527865
 C        -4.013337        -1.174148         3.020658
 O        -4.026634        -2.021941         0.680206
 H         2.344220         1.604328         0.363704
 H         2.739505         0.021693        -0.075340
 H         2.052607         1.120871        -1.327475
 H        -1.896820        -1.647874        -0.515964
 H        -3.198347         1.143096        -0.299417
 H        -2.309464         0.908084        -1.789105
 H        -3.681301        -0.330938        -1.273121
 H        -4.900219        -0.531183         3.256189
 H        -4.545468        -2.107636         3.302715
 H        -3.049794        -0.992682         3.605549
