19
Iteration:  4087charge 0 multiplicity 1
 C         1.207540        -1.144203         0.534280
 C         0.036244        -0.640100        -0.011584
 C        -1.112537        -0.365311        -0.350655
 C        -2.458570         0.106163        -0.502159
 C        -2.488027         1.511901        -0.925760
 O        -3.184065         0.136988         0.849792
 C        -3.107618        -1.079666         1.526103
 C        -3.290543        -0.692101         2.951817
 O        -2.797013        -2.144394         1.138678
 H         1.508112        -2.248578         0.328230
 H         2.013239        -0.382186         0.251064
 H         1.108790        -0.947779         1.641024
 H        -2.933728        -0.754982        -1.176318
 H        -3.495268         1.929042        -0.782597
 H        -1.760240         2.093586        -0.408649
 H        -2.188697         1.620076        -2.003326
 H        -2.988469         0.361492         3.209085
 H        -4.369097        -0.791020         3.263021
 H        -2.733216        -1.459092         3.501266
