19
Iteration:  1734charge 0 multiplicity 1
 C         1.972785         0.677860        -0.410319
 C         0.709902         0.050174         0.113711
 C        -0.433789        -0.379740         0.116315
 C        -1.927363        -0.642258        -0.030437
 C        -2.490981         0.246270        -1.086667
 O        -2.533784        -0.375431         1.305445
 C        -3.683513        -1.129405         1.557503
 C        -3.990095        -1.163268         3.092683
 O        -4.519889        -1.547484         0.821833
 H         2.772786         0.062754        -0.184851
 H         1.895680         0.778284        -1.496481
 H         2.347310         1.706295         0.020507
 H        -2.129286        -1.729063        -0.261786
 H        -2.347322         1.302203        -0.929812
 H        -2.045768        -0.012060        -2.030654
 H        -3.580405        -0.024054        -1.137924
 H        -4.647664        -2.041952         3.147264
 H        -3.052545        -1.387243         3.657356
 H        -4.356134        -0.134280         3.277844
