19
Iteration:   627charge 0 multiplicity 1
 C         1.910370         0.505349         0.183190
 C         0.494703         0.296489        -0.039471
 C        -0.717149         0.155181        -0.176365
 C        -2.123911        -0.291215        -0.235782
 C        -3.070207         0.535141        -1.063530
 O        -2.688219        -0.308353         1.108521
 C        -3.341264        -1.351605         1.599134
 C        -3.831224        -1.195744         2.972271
 O        -3.594910        -2.365591         0.950197
 H         2.552802        -0.505683         0.027758
 H         2.298591         1.193806        -0.520200
 H         2.012949         0.897566         1.170251
 H        -2.187075        -1.246789        -0.744605
 H        -3.369094         1.469603        -0.549918
 H        -2.749717         0.680098        -2.076329
 H        -4.013706        -0.053973        -1.204871
 H        -4.970006        -1.037603         3.068071
 H        -3.770070        -2.212059         3.588682
 H        -3.221736        -0.586879         3.741464
