19
Iteration:   805
 C         1.694504         1.102934        -0.158810
 C         0.610865         0.127483        -0.069557
 C        -0.520573        -0.347942        -0.047330
 C        -1.950782        -0.647179        -0.069091
 C        -2.580153         0.348047        -0.958209
 O        -2.399737        -0.554082         1.318565
 C        -3.615946        -1.245088         1.565924
 C        -3.966828        -1.256579         3.132563
 O        -4.186351        -1.818141         0.660990
 H         1.305097         1.831331        -0.994938
 H         1.826270         1.621715         0.876137
 H         2.514264         0.636447        -0.506816
 H        -2.206491        -1.616124        -0.477136
 H        -2.815019         1.277211        -0.470632
 H        -1.854853         0.659146        -1.708750
 H        -3.408083        -0.085124        -1.464705
 H        -3.143738        -1.378369         3.873370
 H        -4.281084        -0.256069         3.425365
 H        -4.712323        -2.066357         3.345599
