19
Iteration:  4300
 C         1.685199        -0.906331        -0.196412
 C         0.232894        -0.880288        -0.145637
 C        -0.934942        -0.590989        -0.159581
 C        -2.304372        -0.055775        -0.330370
 C        -2.370749         1.329825        -0.876448
 O        -3.026431         0.285771         1.009842
 C        -3.311696        -0.939372         1.691490
 C        -4.037230        -0.646239         2.966364
 O        -3.038420        -2.023166         1.317253
 H         2.034832        -1.811548         0.325577
 H         2.182583        -1.051400        -1.181835
 H         2.215263         0.054221         0.218624
 H        -3.182589        -0.709266        -0.662474
 H        -3.407914         1.489423        -1.178286
 H        -2.020610         1.808026        -0.037962
 H        -1.718442         1.693210        -1.606355
 H        -4.933654        -1.286468         2.943970
 H        -3.433869        -0.839978         3.857193
 H        -4.301283         0.386174         3.017987
