19
Iteration:  2314charge 0 multiplicity 1
 C         1.608438        -0.725805         0.388325
 C         0.186194        -0.432468        -0.014539
 C        -0.983768        -0.151060        -0.154564
 C        -2.396776        -0.019245        -0.458285
 C        -2.772434         1.276690        -1.045221
 O        -3.245749        -0.050947         0.782039
 C        -3.058373        -1.157322         1.679928
 C        -4.023466        -0.810031         2.862960
 O        -2.439748        -2.153892         1.283881
 H         1.617379        -1.128661         1.437349
 H         2.052167        -1.466756        -0.242015
 H         2.294720         0.106933         0.331293
 H        -2.722441        -0.892308        -1.096740
 H        -2.494423         2.106704        -0.445828
 H        -2.177530         1.398786        -2.051700
 H        -3.824261         1.601872        -1.239167
 H        -4.653944         0.076597         2.674034
 H        -4.581634        -1.756141         3.059349
 H        -3.339390        -0.877619         3.731148
