19
Iteration:  4440charge 0 multiplicity 1
 C         1.982108        -0.749315        -0.356102
 C         0.578539        -0.496813        -0.398861
 C        -0.621307        -0.271463        -0.165595
 C        -2.045523        -0.258443        -0.064123
 C        -2.738407         0.847358        -0.955408
 O        -2.407472        -0.187971         1.489846
 C        -3.494003        -0.897479         1.745004
 C        -4.125379        -0.576103         3.092081
 O        -4.082864        -1.649482         0.906043
 H         2.325612        -0.851471         0.637308
 H         2.092923        -1.733984        -0.767580
 H         2.623390        -0.007057        -0.784187
 H        -2.326441        -1.252579        -0.369144
 H        -3.675154         0.318475        -1.329535
 H        -2.784767         1.904209        -0.524955
 H        -2.128256         0.984362        -1.845621
 H        -3.734605        -1.366966         3.763382
 H        -3.865983         0.439147         3.464369
 H        -5.213231        -0.532319         2.984949
