19
Iteration:   836
 C         1.755108         1.084198        -0.192976
 C         0.584317         0.206672        -0.141763
 C        -0.494149        -0.348586         0.110197
 C        -1.938818        -0.688072         0.027930
 C        -2.707201         0.277281        -0.843200
 O        -2.393794        -0.599601         1.375414
 C        -3.563340        -1.230138         1.512513
 C        -3.924511        -1.203503         2.944730
 O        -4.222787        -1.764416         0.622851
 H         1.394782         2.135715        -0.621893
 H         2.236415         1.244370         0.745095
 H         2.544894         0.666202        -0.855413
 H        -2.134137        -1.619976        -0.423255
 H        -2.597683         1.223320        -0.374159
 H        -2.279500         0.256533        -1.901479
 H        -3.702325        -0.087645        -1.002200
 H        -3.026774        -0.675356         3.415482
 H        -4.922993        -0.635854         3.008078
 H        -4.285065        -2.206523         3.348809
