19
Iteration:   934
 C         1.989469         0.736240        -0.214903
 C         0.590994         0.355505        -0.033084
 C        -0.576706         0.030640         0.063397
 C        -1.920130        -0.553077        -0.021361
 C        -2.856820         0.260732        -0.874414
 O        -2.532512        -0.537041         1.316499
 C        -3.625521        -1.270635         1.539748
 C        -3.984720        -1.169188         3.032354
 O        -4.062781        -1.983157         0.608335
 H         2.241794         1.694768         0.394307
 H         2.636470        -0.021287         0.066703
 H         2.146945         0.931774        -1.336915
 H        -1.756088        -1.600811        -0.373199
 H        -3.119803         1.115261        -0.250954
 H        -2.283260         0.530939        -1.827352
 H        -3.803326        -0.225841        -1.097346
 H        -4.459841        -0.148425         3.039483
 H        -4.552631        -2.054957         3.374812
 H        -3.030407        -0.925334         3.629668
