19
Iteration:  1144
 C         1.695034         0.022558         0.354659
 C         0.249132        -0.141241         0.038827
 C        -0.934338        -0.031177        -0.290048
 C        -2.388754        -0.151117        -0.387922
 C        -2.934431         0.954339        -1.232699
 O        -2.915878        -0.074744         0.981276
 C        -3.148614        -1.229741         1.651687
 C        -3.822675        -1.213315         2.962801
 O        -2.901832        -2.301146         1.158349
 H         2.253488        -0.948117         0.807702
 H         2.295756         0.428735        -0.350767
 H         1.759555         0.686356         1.211183
 H        -2.631704        -1.114776        -0.780768
 H        -2.949027         1.849021        -0.581741
 H        -2.376679         1.135488        -2.081154
 H        -3.989055         0.869592        -1.528310
 H        -3.141812        -1.517972         3.806238
 H        -4.260789        -0.271664         3.304724
 H        -4.543832        -1.967419         3.102728
