19
Iteration:  4472
 C         2.018342        -0.774547        -0.326288
 C         0.693805        -0.326900        -0.315292
 C        -0.533251        -0.194004        -0.188125
 C        -1.927544        -0.420725        -0.107343
 C        -2.888586         0.588016        -0.819059
 O        -2.400189        -0.193812         1.426909
 C        -3.588559        -0.795553         1.604233
 C        -4.013498        -0.654910         3.129666
 O        -4.257561        -1.376673         0.838697
 H         2.433635        -0.796518         0.666750
 H         2.043897        -1.812204        -0.656225
 H         2.742963        -0.446048        -1.026739
 H        -2.111805        -1.402928        -0.365214
 H        -3.885774         0.014549        -0.951437
 H        -3.199507         1.470531        -0.127586
 H        -2.519876         0.856687        -1.806703
 H        -3.368392        -1.364167         3.711010
 H        -3.820909         0.331988         3.615145
 H        -5.020631        -1.086166         3.275229
