19
Iteration:    80charge 0 multiplicity 1
 C         1.755661         0.469149         0.276548
 C         0.318280         0.513023         0.064277
 C        -0.809298         0.080998        -0.169078
 C        -2.210946        -0.224173        -0.225789
 C        -3.078427         0.724781        -0.984634
 O        -2.707292        -0.355282         1.075194
 C        -3.245644        -1.500098         1.537500
 C        -3.763320        -1.275383         2.918620
 O        -3.316514        -2.474754         0.842469
 H         2.019113        -0.366612         0.790150
 H         2.348873         0.479697        -0.658225
 H         2.159172         1.302815         0.931608
 H        -2.390243        -1.207834        -0.689054
 H        -3.037403         1.770585        -0.669837
 H        -2.755858         0.814970        -2.115735
 H        -4.144917         0.439623        -0.960345
 H        -4.631775        -1.873401         3.149575
 H        -3.013481        -1.647158         3.622975
 H        -3.856515        -0.241996         3.217193
