19
Iteration:  4203
 C         1.221817        -1.626331         0.297807
 C         0.202901        -0.588602        -0.054508
 C        -0.871533         0.015876        -0.186435
 C        -2.332265         0.179172        -0.384587
 C        -2.916730         1.380795        -1.120220
 O        -2.995842         0.250053         0.995566
 C        -3.107624        -1.023397         1.573781
 C        -3.844121        -0.834709         2.876615
 O        -2.425006        -1.909782         1.268534
 H         0.583233        -2.507852         0.173733
 H         2.055760        -1.838789        -0.387883
 H         1.635099        -1.577603         1.358523
 H        -2.700818        -0.755613        -0.813285
 H        -4.088780         1.453941        -0.918169
 H        -2.326059         2.193060        -0.745619
 H        -2.765738         1.514541        -2.248125
 H        -4.789768        -0.289734         2.813121
 H        -3.988337        -1.779434         3.405631
 H        -3.173775        -0.200504         3.426346
