19
Iteration:   872charge 0 multiplicity 1
 C         2.009336         0.998358        -0.247193
 C         0.591855         0.451297        -0.036726
 C        -0.505266        -0.095249        -0.062355
 C        -1.882032        -0.720439        -0.132995
 C        -2.723782         0.268603        -0.910571
 O        -2.372944        -0.776038         1.392559
 C        -3.640148        -1.260109         1.598483
 C        -4.174490        -1.224876         3.054669
 O        -4.244202        -1.808970         0.703864
 H         2.049819         2.129389        -0.387455
 H         2.804848         0.726693         0.588904
 H         2.318567         0.631645        -1.127712
 H        -1.919554        -1.764250        -0.374448
 H        -2.247528         1.248810        -0.799038
 H        -2.647750         0.125324        -1.913990
 H        -3.783330         0.311073        -0.599893
 H        -3.905076        -0.315992         3.556641
 H        -5.213725        -1.061693         2.996495
 H        -3.791498        -2.032309         3.677930
