19
Iteration:  2806
 C         2.124469         0.179474        -0.445954
 C         0.723727        -0.192167         0.022065
 C        -0.442204        -0.331932         0.323390
 C        -1.875214        -0.658695         0.031115
 C        -2.502843         0.206662        -0.974421
 O        -2.569371        -0.473323         1.330631
 C        -3.813526        -0.888862         1.494840
 C        -3.957690        -0.850241         3.063989
 O        -4.592417        -1.284715         0.663166
 H         1.977731         1.322220        -0.702782
 H         2.874191        -0.085818         0.312514
 H         2.348029        -0.146862        -1.476715
 H        -1.987999        -1.655419        -0.400024
 H        -3.159392        -0.360978        -1.747578
 H        -2.930357         1.050446        -0.460449
 H        -1.718115         0.641632        -1.543437
 H        -4.910361        -1.388955         3.350529
 H        -3.085490        -1.364695         3.524645
 H        -4.024340         0.220493         3.390349
