19
Iteration:   290charge 0 multiplicity 1
 C         1.558197        -0.030900         0.403119
 C         0.061968        -0.018378         0.192845
 C        -1.089139         0.035908        -0.232384
 C        -2.529192        -0.090609        -0.467338
 C        -3.067085         1.186959        -1.158990
 O        -3.263264        -0.308399         0.854971
 C        -2.940421        -1.381619         1.580195
 C        -3.836405        -1.332639         2.805726
 O        -2.089179        -2.201662         1.366062
 H         2.017173         0.441479        -0.504785
 H         1.966937         0.200735         1.412413
 H         1.594993        -1.222100         0.210379
 H        -2.762479        -0.957892        -1.083467
 H        -2.416702         1.982743        -0.598989
 H        -2.580275         1.204635        -2.168854
 H        -4.171820         1.475981        -1.050229
 H        -3.947691        -2.376530         3.146371
 H        -3.260381        -0.579636         3.379742
 H        -4.766800        -0.778115         2.566809
