19
Iteration:  2547charge 0 multiplicity 1
 C         1.811362        -0.199804         0.109760
 C         0.384345        -0.302772         0.111435
 C        -0.796585        -0.323366        -0.081654
 C        -2.205258        -0.216835        -0.186462
 C        -2.580863         0.890469        -1.326630
 O        -2.854387         0.060471         1.056768
 C        -3.335710        -1.096315         1.637759
 C        -3.857341        -0.947667         3.033660
 O        -3.608285        -2.114264         1.007355
 H         2.210963        -0.869245        -0.616087
 H         2.096023         0.863827         0.165589
 H         2.400833        -0.612701         1.064844
 H        -2.692744        -1.167378        -0.476095
 H        -1.834033         1.775453        -1.148751
 H        -2.252586         0.358687        -2.173384
 H        -3.604819         1.182303        -1.264155
 H        -3.273291        -1.625978         3.691161
 H        -3.871096         0.064839         3.391264
 H        -4.921688        -1.088264         3.084001
