19
Iteration:  4109charge 0 multiplicity 1
 C         1.168780        -1.288505         0.651300
 C         0.056866        -0.572026        -0.159174
 C        -1.106589        -0.315282        -0.352304
 C        -2.548927         0.119411        -0.535060
 C        -2.594142         1.522932        -1.003221
 O        -3.115055         0.078272         0.837936
 C        -3.005583        -1.017528         1.591555
 C        -3.397076        -0.750044         3.114267
 O        -2.646778        -2.027390         1.058139
 H         1.107234        -2.385215         0.287010
 H         2.210156        -0.944599         0.347259
 H         1.047186        -1.221064         1.766412
 H        -2.895855        -0.727151        -1.286252
 H        -3.589197         1.915817        -1.217425
 H        -2.163890         2.149782        -0.239899
 H        -1.852554         1.636566        -1.837240
 H        -3.462529         0.354132         3.352862
 H        -4.466647        -1.059061         3.286982
 H        -2.712577        -1.251015         3.813007
