19
Iteration:  4662charge 0 multiplicity 1
 C         1.971734        -0.238796        -0.113594
 C         0.551044        -0.490288        -0.365096
 C        -0.656154        -0.710839        -0.346733
 C        -2.075127        -0.714475        -0.260654
 C        -2.605193         0.623586        -0.717205
 O        -2.359357        -0.661102         1.214326
 C        -3.620120        -0.696419         1.687418
 C        -3.692266        -0.614121         3.189752
 O        -4.480577        -0.928613         0.924752
 H         2.045389         0.797932         0.102874
 H         2.384834        -0.703527         0.770495
 H         2.688877        -0.558900        -0.900409
 H        -2.705597        -1.510747        -0.648025
 H        -3.615533         0.690448        -0.372216
 H        -2.034351         1.469840        -0.332414
 H        -2.595559         0.694936        -1.914398
 H        -2.729474        -0.691070         3.720369
 H        -4.170648         0.393828         3.315295
 H        -4.431468        -1.381099         3.455970
