19
Iteration:  3065
 C         1.782377        -0.657521         0.282946
 C         0.408435        -0.347299         0.162010
 C        -0.780092        -0.208996        -0.030179
 C        -2.201082        -0.154346        -0.255188
 C        -2.837563         0.766002        -1.282694
 O        -2.852218         0.131247         1.013855
 C        -3.339632        -0.991908         1.600716
 C        -3.810291        -0.682985         2.921589
 O        -3.388878        -2.058105         1.000466
 H         2.097522        -0.631823         1.361012
 H         2.008310        -1.584291        -0.195180
 H         2.349646         0.152657        -0.019063
 H        -2.406458        -1.143497        -0.650163
 H        -3.982185         0.704342        -1.336112
 H        -2.391338         1.728165        -1.348856
 H        -2.580525         0.363046        -2.236375
 H        -3.033776        -0.202818         3.479948
 H        -4.672939        -0.040161         2.810827
 H        -4.290862        -1.516613         3.435385
