19
Iteration:  4947charge 0 multiplicity 1
 C         1.811632        -0.907491        -0.201627
 C         0.390440        -0.631701        -0.402024
 C        -0.837423        -0.426945        -0.289332
 C        -2.283112        -0.103746        -0.301729
 C        -2.453069         1.329300        -0.911373
 O        -2.605558         0.028083         1.230500
 C        -3.445853        -1.004397         1.771669
 C        -4.125815        -0.528480         3.095658
 O        -3.492734        -2.066340         1.206974
 H         2.255072        -1.189119        -1.187201
 H         2.349484        -0.135692         0.345001
 H         1.666054        -1.858570         0.446279
 H        -3.084451        -0.776021        -0.627177
 H        -3.378963         1.376255        -1.504046
 H        -2.483291         2.079215        -0.109375
 H        -1.657500         1.465636        -1.550756
 H        -5.164343        -0.935750         3.249440
 H        -3.552539        -1.058824         3.887482
 H        -4.148551         0.587351         3.236883
