19
Iteration:  2760
 C         2.111969         0.162336        -0.316520
 C         0.649301        -0.140781        -0.066102
 C        -0.515990        -0.455345         0.050311
 C        -1.978257        -0.608928         0.053724
 C        -2.484571         0.356093        -1.130928
 O        -2.481413        -0.290162         1.383776
 C        -3.766577        -0.914345         1.672690
 C        -4.188935        -0.925477         3.085565
 O        -4.318927        -1.426293         0.731186
 H         2.287476         1.058140        -0.893178
 H         2.669221         0.029830         0.675594
 H         2.506998        -0.654525        -1.063915
 H        -2.194873        -1.670833        -0.169165
 H        -3.419133        -0.000036        -1.526198
 H        -2.438343         1.438052        -0.874015
 H        -1.796341         0.217857        -2.032614
 H        -5.260751        -0.677210         3.227723
 H        -4.085926        -1.988653         3.335564
 H        -3.500541        -0.291622         3.625412
