19
Iteration:  1287
 C         1.492099        -0.370243         0.462881
 C         0.068686        -0.140287         0.193740
 C        -1.063595        -0.289453        -0.265732
 C        -2.507721        -0.163069        -0.535718
 C        -2.895083         1.232905        -1.087263
 O        -3.280173        -0.096787         0.818603
 C        -2.988159        -1.170538         1.610651
 C        -3.794120        -1.168424         2.816995
 O        -2.194597        -2.055158         1.336426
 H         1.979104        -0.712746        -0.609024
 H         2.058356         0.410079         0.788389
 H         1.715605        -1.238749         1.050061
 H        -2.982075        -0.970484        -1.095270
 H        -2.290556         2.018644        -0.699652
 H        -2.851261         1.268141        -2.267036
 H        -3.864305         1.484466        -0.764760
 H        -4.734099        -0.689746         2.558301
 H        -3.912832        -2.199889         3.010681
 H        -3.340528        -0.445680         3.522896
