19
Iteration:  4314charge 0 multiplicity 1
 C         1.700825        -0.813140        -0.228426
 C         0.249320        -0.803566        -0.234294
 C        -0.944732        -0.680548        -0.148728
 C        -2.285789        -0.118984        -0.281446
 C        -2.246238         1.343958        -0.840839
 O        -2.970214         0.149404         1.002588
 C        -3.425126        -0.906962         1.674971
 C        -4.102186        -0.593140         3.064773
 O        -3.125082        -1.998071         1.290129
 H         2.189569        -1.601548         0.433917
 H         1.981256        -0.987320        -1.289393
 H         2.110571         0.140542         0.084573
 H        -2.767344        -0.803457        -0.934089
 H        -3.285607         1.678212        -1.153922
 H        -1.999817         2.097019        -0.107861
 H        -1.526463         1.288316        -1.716733
 H        -4.849627        -1.346445         3.298748
 H        -3.299802        -0.785200         3.768017
 H        -4.479901         0.426893         3.184363
