19
Iteration:  2189charge 0 multiplicity 1
 C         1.664219        -0.536194         0.356714
 C         0.294386        -0.482321        -0.124045
 C        -0.913170        -0.310304        -0.213412
 C        -2.382003        -0.029947        -0.455421
 C        -2.660506         1.274943        -1.167219
 O        -3.245299        -0.010030         0.837777
 C        -3.208115        -1.082612         1.705760
 C        -4.012266        -1.042188         2.982648
 O        -2.616157        -2.065507         1.363730
 H         1.784765         0.228981         1.167404
 H         1.992117        -1.539334         0.762249
 H         2.306454        -0.295675        -0.422917
 H        -2.909547        -0.907593        -0.977161
 H        -2.016644         2.084569        -0.766654
 H        -2.349382         1.243677        -2.165683
 H        -3.730534         1.499814        -1.289814
 H        -3.674075        -0.217174         3.575795
 H        -5.005402        -0.678905         2.727179
 H        -4.088121        -2.044739         3.463510
