19
Iteration:  1283charge 0 multiplicity 1
 C         1.480073        -0.368779         0.414556
 C         0.041239        -0.149959         0.215549
 C        -1.081093        -0.251955        -0.234816
 C        -2.485841        -0.190904        -0.538075
 C        -2.873813         1.248219        -1.107657
 O        -3.265640        -0.132992         0.813732
 C        -2.991007        -1.150325         1.622828
 C        -3.803401        -1.137291         2.829188
 O        -2.177695        -2.072068         1.314645
 H         1.812678        -0.700887        -0.471502
 H         2.106601         0.499254         0.803839
 H         1.640851        -1.292812         1.164328
 H        -2.937790        -0.980968        -1.224025
 H        -2.211085         2.098160        -0.678088
 H        -2.881420         1.229699        -2.167370
 H        -3.948827         1.483889        -0.720976
 H        -4.723552        -0.612628         2.569428
 H        -3.977590        -2.212819         2.996194
 H        -3.292216        -0.555419         3.574076
