19
Iteration:  2891charge 0 multiplicity 1
 C         2.059306         0.239984        -0.073485
 C         0.621529        -0.102215        -0.255436
 C        -0.508922        -0.519460        -0.145150
 C        -1.908877        -0.765593         0.057085
 C        -2.654084         0.300001        -0.844573
 O        -2.358410        -0.624642         1.394751
 C        -3.697999        -0.887046         1.587555
 C        -4.056542        -0.740538         2.963819
 O        -4.424665        -1.226639         0.644745
 H         2.219139         1.004312         0.508077
 H         2.766687        -0.472417         0.444581
 H         2.587055         0.219979        -1.090211
 H        -2.259708        -1.780900        -0.187022
 H        -3.703053         0.647935        -0.544525
 H        -2.198500         1.264503        -0.831087
 H        -2.658466         0.075435        -1.910051
 H        -4.138478        -1.653974         3.558876
 H        -3.395576         0.036700         3.316179
 H        -5.052730        -0.355048         2.940436
