19
Iteration:  2403
 C         1.617856        -0.546302         0.441358
 C         0.277520        -0.400324        -0.192916
 C        -0.918368        -0.269979        -0.189159
 C        -2.322652        -0.055560        -0.283721
 C        -2.740927         1.190285        -1.196120
 O        -2.937617         0.084696         1.008165
 C        -3.289799        -1.181373         1.582144
 C        -3.923452        -0.866026         2.893192
 O        -2.848727        -2.200756         1.161384
 H         1.594893        -1.571052         0.960719
 H         2.417814        -0.416394        -0.263175
 H         1.734591         0.253185         1.273979
 H        -2.653597        -0.992295        -0.834545
 H        -2.200581         2.072512        -0.886912
 H        -2.691909         0.940153        -2.305986
 H        -3.815639         1.319243        -0.765983
 H        -4.993482        -1.000250         2.776134
 H        -3.700159        -1.661836         3.644889
 H        -3.593091         0.128109         3.342465
