19
Iteration:  3258charge 0 multiplicity 1
 C         1.501499        -0.905180         0.276587
 C         0.179427        -0.559558        -0.120371
 C        -1.056611        -0.530221        -0.157087
 C        -2.394491        -0.053875        -0.466226
 C        -2.462008         1.287747        -1.002038
 O        -3.275652        -0.075725         0.656294
 C        -3.168413        -0.983255         1.679808
 C        -4.225649        -0.734587         2.633794
 O        -2.273980        -1.771109         1.765067
 H         1.612957        -1.791784         0.828384
 H         2.170499        -0.884034        -0.594887
 H         1.814200        -0.190277         1.144139
 H        -2.874315        -0.809404        -1.103763
 H        -3.405099         1.660351        -1.395168
 H        -2.112445         2.044603        -0.159179
 H        -1.682422         1.273431        -1.853984
 H        -4.644442         0.275587         2.710059
 H        -4.961683        -1.483087         2.342311
 H        -3.686134        -1.131037         3.532686
