19
Iteration:  2443
 C         1.749989        -0.508986         0.273028
 C         0.319039        -0.285019         0.223033
 C        -0.804657        -0.162511        -0.223085
 C        -2.250191        -0.106823        -0.408850
 C        -2.746907         1.212560        -1.111660
 O        -3.053954        -0.069726         0.818237
 C        -3.247325        -1.162112         1.572510
 C        -3.805356        -0.795454         2.938213
 O        -3.205812        -2.319374         1.268187
 H         1.966557        -1.650420         0.153590
 H         2.180581        -0.091180        -0.641228
 H         2.311041        -0.190745         1.074676
 H        -2.624608        -1.096333        -0.841555
 H        -2.553603         1.947300        -0.383649
 H        -2.125474         1.603251        -1.979630
 H        -3.778845         1.116289        -1.412694
 H        -4.833656        -1.163812         3.159306
 H        -3.081521        -1.173302         3.679148
 H        -3.976623         0.280128         2.969666
