19
Iteration:   108charge 0 multiplicity 1
 C         1.789139         0.437928         0.306130
 C         0.301199         0.279866         0.134797
 C        -0.895243         0.254895        -0.172039
 C        -2.266679        -0.111095        -0.404061
 C        -3.019816         0.854088        -1.206076
 O        -2.840183        -0.298168         1.085941
 C        -3.239454        -1.502857         1.591147
 C        -3.723960        -1.380938         3.007991
 O        -3.190738        -2.562878         0.979242
 H         2.424658        -0.577347         0.534414
 H         2.203996         0.853372        -0.623006
 H         2.122434         1.075177         1.104290
 H        -2.432010        -1.123977        -0.810973
 H        -2.630819         1.875175        -1.145865
 H        -3.020209         0.736640        -2.214518
 H        -4.059868         0.843621        -0.927315
 H        -4.597268        -2.029917         3.168543
 H        -3.007287        -1.852593         3.733994
 H        -3.942070        -0.356649         3.358391
