19
Iteration:  3664charge 0 multiplicity 1
 C         2.091785         0.058203        -0.163489
 C         0.646507        -0.063978        -0.066002
 C        -0.519105        -0.336416         0.028233
 C        -1.909279        -0.775051        -0.139699
 C        -2.621321        -0.027810        -1.304909
 O        -2.429600        -0.571363         1.304756
 C        -3.729325        -0.769172         1.630490
 C        -3.817530        -0.811179         3.205693
 O        -4.613446        -0.929242         0.868969
 H         2.427537        -0.472878        -1.061943
 H         2.450960         1.151595        -0.047027
 H         2.340616        -0.476866         0.808048
 H        -2.173244        -1.776029        -0.390417
 H        -3.641466        -0.460123        -1.490108
 H        -2.910138         0.856215        -0.900547
 H        -1.962014         0.148839        -2.101870
 H        -4.780593        -0.355314         3.381004
 H        -3.909663        -1.859550         3.344971
 H        -2.972756        -0.350391         3.718103
