19
Iteration:  3933
 C         2.029948        -0.667248        -0.062346
 C         0.497683        -0.518242        -0.013664
 C        -0.678295        -0.165446        -0.087240
 C        -2.169514        -0.129913        -0.228730
 C        -2.803773         1.041114        -1.039178
 O        -2.668674        -0.039479         1.190637
 C        -3.473398        -1.036941         1.602547
 C        -3.852684        -0.800137         3.089460
 O        -3.857035        -1.899370         0.897298
 H         2.338921        -1.479046        -0.838348
 H         2.561046         0.302703        -0.279197
 H         2.342146        -1.065776         0.915490
 H        -2.456014        -1.123960        -0.484849
 H        -3.868319         0.717317        -1.086749
 H        -2.719506         2.048243        -0.835639
 H        -2.586651         0.831230        -2.071050
 H        -3.807095        -1.757442         3.635127
 H        -3.203733        -0.058496         3.589730
 H        -4.891905        -0.398284         3.237012
