19
Iteration:  1776charge 0 multiplicity 1
 C         1.914303         0.663746        -0.202695
 C         0.638215        -0.081328        -0.179737
 C        -0.501517        -0.347533         0.044084
 C        -1.919953        -0.679176         0.027759
 C        -2.613693         0.242232        -0.993515
 O        -2.447116        -0.507759         1.374772
 C        -3.707244        -1.047224         1.573188
 C        -3.965038        -0.961233         3.032393
 O        -4.335674        -1.570403         0.692126
 H         2.828386         0.105804        -0.368629
 H         1.770786         1.422081        -1.063026
 H         2.052652         1.269090         0.728744
 H        -2.120289        -1.681324        -0.354731
 H        -2.514112         1.209798        -0.577111
 H        -2.003615         0.008240        -1.952993
 H        -3.704343         0.037326        -1.114222
 H        -3.816303        -2.007690         3.448200
 H        -3.228253        -0.266621         3.528411
 H        -4.991770        -0.658840         3.356686
