19
Iteration:  1943charge 0 multiplicity 1
 C         1.950665         0.191502         0.098322
 C         0.492256        -0.023930        -0.207945
 C        -0.701286        -0.305796        -0.029017
 C        -2.183002        -0.430454        -0.146778
 C        -2.651692         0.582016        -1.182381
 O        -2.612184        -0.181822         1.201616
 C        -3.523858        -1.126082         1.582572
 C        -3.962427        -0.853317         3.001073
 O        -3.831850        -2.085540         0.982956
 H         2.542650         0.467655        -0.706187
 H         1.918096         0.924524         0.874249
 H         2.448104        -0.814502         0.505549
 H        -2.509685        -1.472430        -0.393293
 H        -2.397732         1.737955        -1.066215
 H        -2.251188         0.267852        -2.090391
 H        -3.732427         0.623895        -1.335546
 H        -4.566173         0.100638         3.018447
 H        -4.421658        -1.730693         3.490231
 H        -3.076659        -0.576745         3.678589
