19
Iteration:  1245charge 0 multiplicity 1
 C         1.552623        -0.364026         0.390745
 C         0.133839        -0.203268         0.155412
 C        -1.056070         0.016414        -0.060190
 C        -2.519082        -0.018313        -0.475597
 C        -2.887131         1.298999        -1.211374
 O        -3.420781        -0.290761         0.736744
 C        -3.074206        -1.298854         1.595587
 C        -3.686112        -1.058640         2.815368
 O        -2.235260        -2.227199         1.392796
 H         2.162837        -1.178702        -0.343248
 H         2.179352         0.577185         0.347694
 H         1.670333        -0.808002         1.295285
 H        -2.634619        -0.928272        -1.002568
 H        -2.463317         2.158567        -0.835223
 H        -2.530303         1.241294        -2.311362
 H        -3.905483         1.412490        -1.232634
 H        -4.042619        -0.011695         2.997083
 H        -4.572506        -1.666211         3.089177
 H        -3.017221        -1.322764         3.723415
