19
Iteration:  2506
 C         1.860928        -0.334587         0.138452
 C         0.437964        -0.248786         0.001650
 C        -0.777247        -0.245075         0.057713
 C        -2.244038        -0.206105        -0.226564
 C        -2.510197         1.003276        -1.200030
 O        -3.150881         0.007971         0.863684
 C        -3.500518        -1.117051         1.601371
 C        -3.730910        -0.844322         3.050783
 O        -3.442999        -2.243598         1.102375
 H         2.146210        -1.116749        -0.499183
 H         2.349537         0.559732        -0.413107
 H         2.195694        -0.484603         1.253140
 H        -2.473819        -1.186487        -0.623548
 H        -2.728646         1.903663        -0.478809
 H        -1.704299         1.151509        -1.967000
 H        -3.445891         0.908076        -1.750536
 H        -3.719385        -1.819340         3.594876
 H        -2.935140        -0.164152         3.409896
 H        -4.726616        -0.410410         3.253718
