19
Iteration:  4258charge 0 multiplicity 1
 C         1.501424        -1.308014        -0.032093
 C         0.139936        -0.656805        -0.061035
 C        -0.941046        -0.203896        -0.168477
 C        -2.313765         0.109654        -0.361483
 C        -2.534823         1.446129        -1.109369
 O        -2.981387         0.230524         1.054357
 C        -3.203636        -1.061667         1.665799
 C        -4.028188        -0.718208         2.953857
 O        -2.740443        -2.111306         1.366958
 H         1.375955        -2.358119         0.328871
 H         1.978131        -1.296973        -1.018586
 H         2.054284        -0.634626         0.703829
 H        -2.737854        -0.764439        -0.884327
 H        -3.694439         1.685380        -1.083287
 H        -1.931454         2.229493        -0.711755
 H        -2.414406         1.404016        -2.226719
 H        -5.112778        -0.841961         2.837913
 H        -3.606508        -1.256947         3.794705
 H        -3.879558         0.311131         3.201474
