19
Iteration:  3198
 C         1.446894        -0.836122         0.344965
 C         0.074213        -0.643035         0.158200
 C        -1.067116        -0.497821        -0.225683
 C        -2.323407        -0.044417        -0.492314
 C        -2.431575         1.335449        -1.100752
 O        -3.347325        -0.096887         0.530565
 C        -3.174374        -0.959204         1.637685
 C        -4.052702        -0.776373         2.846491
 O        -2.294538        -1.843770         1.629927
 H         1.603750        -1.632527         1.174367
 H         2.101241        -1.113550        -0.506501
 H         1.819580         0.094466         0.623756
 H        -2.842453        -0.589741        -1.340166
 H        -3.563328         1.737820        -1.086575
 H        -1.728695         2.042594        -0.475796
 H        -1.931436         1.308134        -2.120808
 H        -4.019800         0.239792         3.257475
 H        -5.159987        -0.870958         2.563682
 H        -3.753633        -1.446449         3.639709
