19
Iteration:  2235charge 0 multiplicity 1
 C         1.560312        -0.677049         0.173463
 C         0.095779        -0.366937         0.315468
 C        -1.040738        -0.197491        -0.073603
 C        -2.394271        -0.138274        -0.398547
 C        -2.679227         1.355212        -1.005934
 O        -3.284152        -0.128611         0.666384
 C        -3.133347        -1.223852         1.558266
 C        -3.909940        -0.706150         2.815231
 O        -2.397480        -2.184115         1.364544
 H         2.163679        -0.403958         1.160953
 H         1.689011        -1.745297        -0.054434
 H         1.926563        -0.151147        -0.583941
 H        -2.610936        -1.111677        -0.990432
 H        -2.556765         2.126398        -0.140859
 H        -1.944242         1.764400        -1.693020
 H        -3.554346         1.381300        -1.573781
 H        -3.791664         0.406087         2.769289
 H        -4.978056        -0.920320         2.670610
 H        -3.504127        -1.234838         3.650472
