19
Iteration:  3892
 C         2.053273        -0.570761        -0.210669
 C         0.644518        -0.219106        -0.169754
 C        -0.591178        -0.200306        -0.197081
 C        -2.031290        -0.316724        -0.073439
 C        -2.804487         0.734652        -0.807793
 O        -2.452411        -0.250693         1.341649
 C        -3.590525        -1.013572         1.612390
 C        -4.145779        -0.622168         3.007567
 O        -3.998736        -1.756614         0.801438
 H         2.329418        -1.317558        -0.914096
 H         2.691151         0.330355        -0.247853
 H         2.159510        -0.982862         0.782150
 H        -2.450704        -1.213916        -0.590498
 H        -3.869514         0.770326        -0.348162
 H        -2.375348         1.733600        -0.565246
 H        -2.838209         0.607712        -1.949871
 H        -4.762283        -1.471515         3.349470
 H        -3.335399        -0.392881         3.727245
 H        -4.839339         0.219724         2.850132
