19
Iteration:  3143
 C         1.578432        -0.855684         0.444052
 C         0.261916        -0.484832        -0.050866
 C        -0.910078        -0.220156        -0.262622
 C        -2.290077        -0.065100        -0.469861
 C        -2.701838         1.228162        -1.208539
 O        -3.045986        -0.032906         0.801853
 C        -3.208563        -1.074102         1.690217
 C        -4.098510        -0.609416         2.800240
 O        -2.641423        -2.139990         1.498887
 H         1.392251        -1.347943         1.472704
 H         2.055688        -1.625621        -0.178669
 H         2.238418        -0.071969         0.636439
 H        -2.710754        -0.871790        -1.140019
 H        -3.856726         1.125493        -1.339517
 H        -2.776666         2.096447        -0.486950
 H        -2.184125         1.435626        -2.146066
 H        -3.649029         0.243663         3.286371
 H        -5.085463        -0.203522         2.520762
 H        -4.074227        -1.380569         3.570580
