19
Iteration:   474
 C         1.648068         0.308840         0.143129
 C         0.224027         0.079340         0.012523
 C        -0.929121        -0.200577        -0.176921
 C        -2.349696        -0.246652        -0.359032
 C        -2.888591         0.991862        -1.069974
 O        -3.063381        -0.168707         1.031878
 C        -3.196853        -1.413416         1.627601
 C        -3.983211        -1.188479         2.902803
 O        -2.600891        -2.395724         1.153013
 H         1.928505         0.558881         1.335798
 H         2.264077        -0.539604        -0.128751
 H         2.121147         1.097375        -0.310585
 H        -2.558595        -1.299075        -0.828722
 H        -2.595417         1.887428        -0.354877
 H        -2.453632         1.403916        -1.955429
 H        -4.014445         1.015822        -1.160946
 H        -3.395327        -0.420200         3.521032
 H        -5.059395        -0.924724         2.611903
 H        -3.983832        -2.075022         3.666553
