19
Iteration:   545charge 0 multiplicity 1
 C         1.710356         0.558253         0.096766
 C         0.372779         0.115509         0.015277
 C        -0.800213        -0.199470        -0.105768
 C        -2.321450        -0.307849        -0.193287
 C        -2.730360         0.847034        -1.045613
 O        -3.106881        -0.180754         0.938387
 C        -3.319712        -1.368202         1.574904
 C        -3.765291        -1.235282         3.043049
 O        -3.138022        -2.439575         1.060025
 H         2.198980         0.035078         0.807813
 H         2.295573         0.371045        -0.857876
 H         1.964605         1.691053         0.391814
 H        -2.571519        -1.185515        -0.771271
 H        -2.418603         1.800821        -0.672111
 H        -2.094765         0.719194        -1.982496
 H        -3.786407         0.881324        -1.291873
 H        -3.838030        -0.239302         3.344295
 H        -4.647062        -1.773569         3.089041
 H        -3.038810        -1.650283         3.661921
