19
Iteration:   556
 C         1.773604         0.503942         0.115925
 C         0.318902         0.240144        -0.013581
 C        -0.843805        -0.171728        -0.038403
 C        -2.231371        -0.322026        -0.255705
 C        -2.712119         0.819676        -1.054690
 O        -3.093997        -0.172594         1.022586
 C        -3.288574        -1.391522         1.577639
 C        -3.710725        -1.187799         2.940167
 O        -3.235586        -2.493032         1.060385
 H         2.280451        -0.114318         0.721058
 H         2.189291         0.459731        -0.950928
 H         1.741713         1.661447         0.483959
 H        -2.517590        -1.317112        -0.603380
 H        -2.414274         1.729618        -0.566743
 H        -2.411853         0.777234        -2.151578
 H        -3.796976         0.707731        -1.063360
 H        -4.036995        -0.219345         3.099125
 H        -4.536759        -1.759630         3.163118
 H        -2.993121        -1.518059         3.603907
