19
Iteration:    21
 C         1.871495         0.845977         0.117688
 C         0.552272         0.264929        -0.033823
 C        -0.667597         0.139237        -0.180830
 C        -2.081152        -0.263922        -0.151277
 C        -3.083226         0.605764        -1.010721
 O        -2.477411        -0.416641         1.311274
 C        -3.355404        -1.472839         1.527950
 C        -3.919061        -1.459388         2.946377
 O        -3.792384        -2.319947         0.773132
 H         2.138152         0.780133         1.238674
 H         2.608372         0.330172        -0.464277
 H         1.823479         1.793725        -0.148427
 H        -2.119414        -1.288532        -0.573020
 H        -3.348605         1.495752        -0.400756
 H        -2.590302         0.878291        -1.877121
 H        -3.894701        -0.052973        -1.239442
 H        -4.750160        -2.192747         2.998696
 H        -3.140562        -1.770489         3.673688
 H        -4.307416        -0.454307         3.171550
