19
Iteration:  4786
 C         1.987321        -0.659406        -0.487187
 C         0.568040        -0.538800        -0.397065
 C        -0.547269        -0.398585         0.057522
 C        -1.947612        -0.372787         0.026463
 C        -2.616338         0.679744        -0.928645
 O        -2.520062        -0.031930         1.343908
 C        -3.666064        -0.755408         1.697254
 C        -3.980099        -0.733600         3.214554
 O        -4.235988        -1.486302         0.830876
 H         2.577512         0.061449        -1.048642
 H         2.458943        -0.667256         0.481349
 H         2.277720        -1.540083        -1.078228
 H        -2.418424        -1.354249        -0.233816
 H        -3.792328         0.596271        -0.908689
 H        -2.440112         1.767887        -0.542663
 H        -2.412349         0.587567        -1.984836
 H        -3.184730        -1.317348         3.703021
 H        -3.636502         0.219162         3.591989
 H        -5.019861        -1.031298         3.352333
