19
Iteration:  1386
 C         1.716380        -0.372493         0.266894
 C         0.269325        -0.000723         0.227862
 C        -0.876223        -0.082985        -0.221606
 C        -2.364041        -0.120840        -0.409159
 C        -3.088481         1.036909        -1.070655
 O        -3.058825        -0.090067         0.888989
 C        -3.065580        -1.219964         1.605057
 C        -3.981815        -1.042114         2.891019
 O        -2.617245        -2.244085         1.224390
 H         2.386501         0.293912        -0.464788
 H         2.246725        -0.414711         1.144833
 H         1.694542        -1.398414        -0.235954
 H        -2.642004        -1.034501        -0.976820
 H        -3.027808         1.907454        -0.434836
 H        -2.517422         1.439647        -2.066235
 H        -4.114707         0.780399        -1.295225
 H        -4.270590        -2.049433         3.141697
 H        -3.501698        -0.450964         3.681132
 H        -4.825379        -0.437525         2.543478
