19
Iteration:  1243
 C         1.567681        -0.356132         0.379721
 C         0.147643        -0.193996         0.146670
 C        -1.041836         0.010878        -0.054581
 C        -2.517583         0.001798        -0.470505
 C        -2.897164         1.283832        -1.221800
 O        -3.428817        -0.295863         0.725608
 C        -3.080577        -1.292861         1.589758
 C        -3.684292        -1.062236         2.831301
 O        -2.252809        -2.235139         1.398064
 H         2.222631        -1.210956        -0.289535
 H         2.135672         0.496163         0.357305
 H         1.686261        -0.796399         1.376328
 H        -2.633576        -0.944259        -0.955443
 H        -2.529855         2.212365        -0.754815
 H        -2.502618         1.266021        -2.292822
 H        -3.963092         1.420058        -1.257285
 H        -3.950387        -0.025116         3.068747
 H        -4.572874        -1.629659         3.013568
 H        -2.997187        -1.333339         3.666581
