19
Iteration:  4187charge 0 multiplicity 1
 C         1.116484        -1.628900         0.344754
 C         0.080105        -0.692762         0.026551
 C        -0.886754         0.005682        -0.258536
 C        -2.388368         0.224369        -0.303025
 C        -2.914616         1.409817        -1.084888
 O        -2.994687         0.241074         0.933549
 C        -2.934915        -0.917592         1.581785
 C        -3.778489        -0.833601         2.852414
 O        -2.387670        -1.959763         1.215052
 H         0.825575        -2.705576         0.340471
 H         2.006903        -1.385721        -0.296546
 H         1.424246        -1.304555         1.380799
 H        -2.636667        -0.707154        -0.937328
 H        -3.920332         1.236024        -1.229502
 H        -2.749971         2.461548        -0.725467
 H        -2.576032         1.255569        -2.088022
 H        -4.628344        -0.152247         2.704245
 H        -4.040810        -1.858968         3.150483
 H        -3.171723        -0.456114         3.732414
