19
Iteration:  3887charge 0 multiplicity 1
 C         2.092589        -0.557193        -0.208778
 C         0.641498        -0.183458        -0.201084
 C        -0.561576        -0.217962        -0.214845
 C        -2.058816        -0.314532        -0.056916
 C        -2.824568         0.739750        -0.806432
 O        -2.422799        -0.318388         1.352448
 C        -3.585197        -0.982490         1.669279
 C        -4.178845        -0.626550         2.992551
 O        -4.027117        -1.744565         0.782991
 H         2.312509        -1.349648        -1.041909
 H         2.618154         0.409617        -0.290963
 H         2.215781        -1.010280         0.813798
 H        -2.220837        -1.371297        -0.375730
 H        -3.877873         0.874954        -0.602655
 H        -2.273807         1.653482        -0.611001
 H        -2.783456         0.651037        -1.847710
 H        -4.899106        -1.375112         3.345634
 H        -3.471287        -0.384522         3.785274
 H        -4.817798         0.286937         2.890337
