19
Iteration:  1731charge 0 multiplicity 1
 C         1.968534         0.673165        -0.416641
 C         0.674711         0.065480         0.117377
 C        -0.444651        -0.359197         0.108545
 C        -1.919300        -0.645489        -0.009515
 C        -2.480555         0.250930        -1.099222
 O        -2.524708        -0.385212         1.305965
 C        -3.689064        -1.113886         1.562016
 C        -3.981223        -1.167933         3.109568
 O        -4.519065        -1.554948         0.807806
 H         2.814592         0.006414        -0.056666
 H         1.929986         0.776107        -1.586686
 H         2.321018         1.583121        -0.021774
 H        -2.104021        -1.657712        -0.356618
 H        -2.364376         1.283962        -0.838827
 H        -1.931497        -0.151270        -2.107011
 H        -3.527434         0.033421        -1.147370
 H        -4.718310        -2.023432         3.150876
 H        -3.075768        -1.425028         3.687627
 H        -4.305167        -0.148567         3.321852
