19
Iteration:  2747
 C         2.036448         0.109129        -0.268338
 C         0.661153        -0.207117        -0.132771
 C        -0.514930        -0.339220         0.046014
 C        -1.958623        -0.585787         0.028241
 C        -2.562333         0.369403        -1.175479
 O        -2.504225        -0.314652         1.424699
 C        -3.652635        -0.885092         1.575484
 C        -4.190308        -0.908903         3.098775
 O        -4.260804        -1.495901         0.754168
 H         2.228834         1.076858        -0.632363
 H         2.591566         0.275494         0.781178
 H         2.677909        -0.789997        -0.800762
 H        -2.332411        -1.630214        -0.202680
 H        -3.619930         0.443766        -1.217543
 H        -2.122632         1.388394        -0.832614
 H        -1.980092         0.032438        -2.122879
 H        -5.117993        -0.377981         3.103208
 H        -4.418167        -1.950478         3.419553
 H        -3.602491        -0.453314         3.902645
