19
Iteration:  3410
 C         1.879796        -0.676448        -0.079835
 C         0.417856        -0.571792         0.039400
 C        -0.750888        -0.197999         0.102500
 C        -2.199759        -0.129010        -0.218046
 C        -2.528929         0.811095        -1.387381
 O        -3.025130         0.194346         1.018964
 C        -3.392531        -0.963271         1.730101
 C        -4.263831        -0.653384         2.908472
 O        -3.174521        -2.098512         1.345258
 H         2.040349        -1.599325        -0.590954
 H         2.401342         0.112495        -0.672798
 H         2.468989        -0.442069         0.769965
 H        -2.690801        -1.093398        -0.494842
 H        -3.559897         0.731429        -1.621477
 H        -2.384375         1.938581        -1.135300
 H        -1.902554         0.686108        -2.286416
 H        -4.948534         0.080220         2.538988
 H        -4.698534        -1.578960         3.291565
 H        -3.566274        -0.129912         3.570939
