19
Iteration:  2805
 C         2.119395         0.179938        -0.444474
 C         0.726425        -0.186192         0.018066
 C        -0.437160        -0.333305         0.330371
 C        -1.884017        -0.662382         0.024334
 C        -2.499179         0.206193        -0.973788
 O        -2.567693        -0.463772         1.328188
 C        -3.813214        -0.889458         1.489153
 C        -3.964450        -0.857040         3.060123
 O        -4.588034        -1.286493         0.669324
 H         1.972791         1.296347        -0.683863
 H         2.919133        -0.074363         0.332099
 H         2.360768        -0.183495        -1.513068
 H        -2.038955        -1.665183        -0.390619
 H        -3.176004        -0.341847        -1.713946
 H        -2.974095         1.035872        -0.446933
 H        -1.676552         0.635540        -1.542178
 H        -4.928648        -1.368122         3.371700
 H        -3.084944        -1.344475         3.509128
 H        -3.979522         0.195685         3.399659
