19
Iteration:  1119charge 0 multiplicity 1
 C         1.735876         0.135694         0.346368
 C         0.371477        -0.024727        -0.089669
 C        -0.830303        -0.179648        -0.217784
 C        -2.266802        -0.173468        -0.328241
 C        -2.918284         0.859937        -1.143344
 O        -3.016726        -0.018681         1.044456
 C        -3.265084        -1.288098         1.570368
 C        -3.816596        -1.171907         2.989231
 O        -3.028174        -2.330957         1.053300
 H         2.067090        -0.772450         0.895531
 H         2.473721         0.271674        -0.458813
 H         1.959144         1.024417         1.115457
 H        -2.626744        -1.187216        -0.716417
 H        -2.588421         1.920301        -0.819005
 H        -2.930324         0.715364        -2.239850
 H        -4.031888         0.899563        -0.853525
 H        -3.282877        -1.828104         3.640203
 H        -3.707285        -0.168446         3.391333
 H        -4.824658        -1.516693         3.266521
