19
Iteration:  1192
 C         1.621828        -0.240261         0.411806
 C         0.208232        -0.035279         0.109311
 C        -0.983851        -0.038694        -0.177690
 C        -2.453177        -0.170607        -0.411140
 C        -3.000845         1.066761        -1.104755
 O        -3.174767        -0.088512         0.871386
 C        -3.101957        -1.313847         1.569273
 C        -3.725847        -1.012482         2.850488
 O        -2.540220        -2.334620         1.198860
 H         1.885684        -1.219637         0.117980
 H         2.307064         0.460187        -0.246468
 H         1.972422        -0.184579         1.413661
 H        -2.658362        -1.166244        -0.830176
 H        -3.426627         1.774613        -0.456189
 H        -2.117003         1.527790        -1.685264
 H        -3.780586         0.890716        -1.812310
 H        -3.106384        -0.261331         3.420056
 H        -4.752869        -0.576960         2.702736
 H        -3.739027        -1.885037         3.599838
