19
Iteration:   606charge 0 multiplicity 1
 C         1.868050         0.526436         0.136900
 C         0.430225         0.261006         0.110219
 C        -0.731581         0.183149        -0.209940
 C        -2.147017        -0.277021        -0.267178
 C        -2.975610         0.701876        -1.191339
 O        -2.742953        -0.235907         1.141934
 C        -3.321203        -1.477508         1.607750
 C        -3.786102        -1.193583         2.962450
 O        -3.579342        -2.553052         1.034157
 H         2.250986        -0.602307         0.193558
 H         2.151112         0.912410        -0.835150
 H         2.144378         1.069532         0.927749
 H        -2.235368        -1.360932        -0.554893
 H        -2.871424         1.653933        -0.675073
 H        -2.571290         0.647047        -2.203936
 H        -4.086132         0.568167        -1.232771
 H        -4.706597        -0.508232         2.871312
 H        -4.116842        -2.087331         3.643105
 H        -2.938207        -0.711703         3.582764
