19
Iteration:  3486charge 0 multiplicity 1
 C         1.865036        -0.269178         0.179719
 C         0.444039        -0.372921        -0.001562
 C        -0.687825        -0.484655        -0.319423
 C        -2.110670        -0.381693        -0.361265
 C        -2.484190         0.863467        -1.229468
 O        -2.720902        -0.143599         1.014098
 C        -3.600126        -1.027363         1.677881
 C        -3.830807        -0.371643         3.049991
 O        -3.941165        -2.152105         1.318579
 H         2.470239        -0.974280        -0.559271
 H         2.138019         0.841733        -0.257055
 H         2.310786        -0.321483         1.220953
 H        -2.587920        -1.294624        -0.865236
 H        -3.501879         0.978177        -1.468776
 H        -1.872965         1.764079        -0.844645
 H        -2.020268         0.662741        -2.206165
 H        -4.669274         0.305530         3.005242
 H        -4.016872        -1.210779         3.763629
 H        -2.918568         0.155526         3.265431
