19
Iteration:  4001charge 0 multiplicity 1
 C         1.601305        -0.739141         0.245556
 C         0.251578        -0.515325        -0.073031
 C        -0.955131        -0.475749        -0.122216
 C        -2.344884        -0.080580        -0.351206
 C        -2.406404         1.320023        -1.079853
 O        -3.037902         0.138942         0.987973
 C        -3.324615        -1.049992         1.654341
 C        -3.412795        -0.804734         3.131644
 O        -3.497014        -2.104739         0.951416
 H         1.940603        -1.675266        -0.270229
 H         2.428728        -0.009923         0.002449
 H         1.752535        -1.040082         1.321496
 H        -2.870156        -0.581716        -1.124872
 H        -3.426434         1.343218        -1.399422
 H        -2.096057         2.092574        -0.397279
 H        -1.953744         1.340067        -2.116649
 H        -2.369559        -1.082566         3.462432
 H        -3.705630         0.260582         3.265824
 H        -4.166106        -1.384196         3.675181
