19
Iteration:  2730charge 0 multiplicity 1
 C         2.091591         0.078311        -0.163374
 C         0.619788        -0.272970        -0.179717
 C        -0.569310        -0.295603         0.032027
 C        -1.940522        -0.487582        -0.031897
 C        -2.596666         0.403426        -1.060731
 O        -2.444389        -0.266476         1.366366
 C        -3.669353        -1.021594         1.663714
 C        -4.179789        -0.825048         2.995512
 O        -4.244558        -1.586667         0.762458
 H         2.231535         1.026844        -0.793638
 H         2.400612         0.229238         0.813601
 H         2.634516        -0.685400        -0.555520
 H        -2.104682        -1.495572        -0.411929
 H        -3.655850         0.582080        -0.671763
 H        -2.233761         1.383630        -1.218526
 H        -2.582009        -0.231902        -1.922316
 H        -4.941505         0.020987         2.969902
 H        -4.568009        -1.799448         3.315661
 H        -3.332815        -0.655555         3.670324
