19
Iteration:  1615
 C         1.968520         0.360426        -0.049140
 C         0.581004         0.048294        -0.124531
 C        -0.608093        -0.069599        -0.068983
 C        -1.989061        -0.469181        -0.082392
 C        -2.973212         0.426810        -0.935016
 O        -2.400376        -0.429641         1.344796
 C        -3.504483        -1.247123         1.580732
 C        -3.993497        -0.922119         2.956903
 O        -4.032837        -1.924445         0.745343
 H         2.365570         0.589202         0.920760
 H         2.548324        -0.393641        -0.515728
 H         2.158113         1.347498        -0.689908
 H        -2.041727        -1.558485        -0.406355
 H        -2.952292         1.492129        -0.562282
 H        -2.543353         0.613420        -1.917179
 H        -4.022912         0.054620        -1.072614
 H        -4.174171         0.165726         3.002429
 H        -5.017358        -1.312914         3.070706
 H        -3.259814        -1.207788         3.717420
