19
Iteration:  1219charge 0 multiplicity 1
 C         1.587366        -0.301915         0.411204
 C         0.215535        -0.117706         0.043564
 C        -1.001115        -0.014347        -0.045449
 C        -2.385603        -0.069046        -0.492550
 C        -2.963433         1.189659        -1.109844
 O        -3.327476        -0.261471         0.632524
 C        -3.088605        -1.262352         1.624753
 C        -3.697684        -1.071070         3.001251
 O        -2.445468        -2.214255         1.287479
 H         1.925057        -1.261247        -0.150534
 H         2.256642         0.415747         0.079860
 H         1.816060        -0.582403         1.534287
 H        -2.479035        -0.960359        -1.177949
 H        -3.268010         2.159333        -0.521029
 H        -2.349207         1.454984        -1.932747
 H        -3.954674         0.803605        -1.569447
 H        -3.584766        -0.088403         3.438143
 H        -4.768984        -1.203484         2.973066
 H        -3.305163        -1.706831         3.723023
