19
Iteration:  2606charge 0 multiplicity 1
 C         2.042140        -0.152654         0.318353
 C         0.559801        -0.228267        -0.161601
 C        -0.656657        -0.310775        -0.266974
 C        -2.119538        -0.354574        -0.258440
 C        -2.833347         0.831679        -0.992649
 O        -2.647733        -0.134403         1.101238
 C        -3.422300        -1.096025         1.541055
 C        -3.977822        -0.708252         2.930714
 O        -3.880064        -2.123741         1.024264
 H         2.554994        -0.098162        -0.604671
 H         2.334179         0.879721         0.681338
 H         2.379264        -0.994450         0.983208
 H        -2.441894        -1.380069        -0.457268
 H        -2.303630         1.716274        -0.867220
 H        -3.150994         0.678922        -2.116432
 H        -3.812446         0.897146        -0.424458
 H        -3.245842        -0.270238         3.599472
 H        -4.637802         0.166142         2.744448
 H        -4.437967        -1.584210         3.438861
