19
Iteration:  3506
 C         1.930910        -0.079191         0.290464
 C         0.481737        -0.549904        -0.110740
 C        -0.734697        -0.498572        -0.386059
 C        -2.168945        -0.429444        -0.363933
 C        -2.558702         0.765664        -1.269170
 O        -2.631608        -0.210143         1.040364
 C        -3.505174        -1.022310         1.716740
 C        -3.781296        -0.410374         3.083947
 O        -4.061976        -1.993544         1.232558
 H         2.698421        -0.737840        -0.272887
 H         2.263953         0.998986         0.143230
 H         2.105682        -0.265915         1.372425
 H        -2.796549        -1.180326        -0.810449
 H        -3.554701         1.025303        -1.194174
 H        -1.980101         1.661880        -0.790106
 H        -2.128763         0.777392        -2.299893
 H        -4.625537         0.279221         3.001768
 H        -4.045787        -1.172498         3.860346
 H        -2.919807         0.206389         3.404968
