19
Iteration:  1811charge 0 multiplicity 1
 C         1.958699         0.479990        -0.063368
 C         0.523842         0.288818        -0.162970
 C        -0.502619        -0.445471        -0.171340
 C        -1.951790        -0.699050        -0.146246
 C        -2.741159         0.269940        -0.937209
 O        -2.277063        -0.627991         1.324691
 C        -3.589160        -1.071576         1.636955
 C        -4.169042        -0.856576         3.066531
 O        -4.211995        -1.589349         0.795770
 H         2.525053        -0.180080        -0.588346
 H         2.095284         1.430562        -0.614474
 H         2.377697         0.705545         1.056519
 H        -2.125765        -1.762258        -0.512364
 H        -2.558233         1.333567        -0.625002
 H        -2.318219         0.319544        -1.912205
 H        -3.835391        -0.012725        -1.049843
 H        -3.432974        -1.274413         3.758456
 H        -4.114485         0.266077         3.185134
 H        -5.233281        -1.283004         3.026075
