19
Iteration:  2993
 C         1.933838        -0.164321         0.198963
 C         0.545461        -0.205231        -0.099831
 C        -0.654717        -0.451175        -0.028155
 C        -2.116336        -0.417054        -0.239460
 C        -2.477686         0.740488        -1.237126
 O        -2.729369        -0.172103         1.080807
 C        -3.593598        -1.046559         1.573232
 C        -3.711196        -0.697893         3.055045
 O        -4.183216        -1.904361         1.023318
 H         2.202586         0.233229         1.164504
 H         2.316284        -1.214811         0.108791
 H         2.505666         0.516067        -0.604953
 H        -2.689966        -1.355369        -0.476969
 H        -3.451232         0.610946        -1.685499
 H        -2.385265         1.743394        -0.684634
 H        -1.733621         0.819991        -2.080033
 H        -2.756341        -0.746074         3.596589
 H        -4.063365         0.378428         3.067501
 H        -4.572887        -1.202781         3.574195
