19
Iteration:  1701charge 0 multiplicity 1
 C         1.992387         0.508359        -0.316174
 C         0.484400         0.244642        -0.156099
 C        -0.573246        -0.179036         0.229859
 C        -1.928648        -0.644968        -0.000907
 C        -2.447006         0.247887        -1.176817
 O        -2.514425        -0.505786         1.441580
 C        -3.701493        -1.106496         1.625290
 C        -3.946401        -1.139080         3.078940
 O        -4.380464        -1.559817         0.696001
 H         2.442505        -0.164793         0.303374
 H         2.296547         0.196852        -1.327053
 H         2.450782         1.586966        -0.156041
 H        -2.069604        -1.673471        -0.421516
 H        -2.363252         1.225348        -0.816795
 H        -1.832759        -0.106163        -1.974637
 H        -3.516719         0.055115        -1.355066
 H        -4.991199        -1.404462         3.434675
 H        -3.174301        -1.917065         3.381872
 H        -3.605588        -0.249802         3.647711
