19
Iteration:  4269
 C         1.525111        -1.154621        -0.074601
 C         0.169186        -0.785974        -0.075470
 C        -0.948726        -0.320563        -0.146063
 C        -2.328450         0.149154        -0.311364
 C        -2.525416         1.431526        -1.078675
 O        -2.953385         0.155734         1.008676
 C        -3.244100        -0.985048         1.709266
 C        -4.044068        -0.665315         2.977901
 O        -2.781226        -2.099648         1.316960
 H         1.608256        -2.194128         0.368736
 H         1.972067        -1.228365        -1.072413
 H         2.286447        -0.612063         0.588562
 H        -2.902993        -0.619876        -0.879127
 H        -3.665571         1.706739        -1.005809
 H        -2.049105         2.238386        -0.574076
 H        -2.043618         1.295160        -2.089705
 H        -5.080098        -1.032154         2.871924
 H        -3.674755        -1.209331         3.837410
 H        -4.021393         0.396325         3.059363
