19
Iteration:  2495
 C         1.880881        -0.383542         0.101635
 C         0.371181        -0.259366         0.038600
 C        -0.858835        -0.175198         0.060022
 C        -2.241061        -0.121153        -0.284018
 C        -2.512688         1.002949        -1.132261
 O        -3.174545        -0.019038         0.874707
 C        -3.382471        -1.183989         1.541280
 C        -3.706446        -0.781642         3.031625
 O        -3.444106        -2.315919         1.124404
 H         2.263019        -1.276317        -0.252594
 H         2.428231         0.546654        -0.287931
 H         2.213048        -0.383309         1.213408
 H        -2.539816        -1.039564        -0.769693
 H        -2.772840         1.960765        -0.525848
 H        -1.622384         1.247765        -1.739854
 H        -3.344201         0.660291        -1.727740
 H        -3.989960        -1.637928         3.688082
 H        -2.934823        -0.165209         3.536392
 H        -4.523149        -0.076102         2.912904
