19
Iteration:  4676charge 0 multiplicity 1
 C         2.025764        -0.313762        -0.130920
 C         0.626443        -0.437376        -0.474652
 C        -0.584543        -0.588715        -0.314356
 C        -2.081351        -0.660433        -0.118166
 C        -2.690939         0.581280        -0.702679
 O        -2.334173        -0.646097         1.257127
 C        -3.627573        -0.800462         1.631640
 C        -3.684667        -0.542517         3.176804
 O        -4.626752        -0.953750         0.858447
 H         2.319713         0.754674         0.131313
 H         2.050252        -0.914677         0.789319
 H         2.709946        -0.786318        -0.912575
 H        -2.320548        -1.682313        -0.637789
 H        -3.774322         0.730179        -0.520085
 H        -2.042518         1.429653        -0.278843
 H        -2.494298         0.605169        -1.827314
 H        -2.663454        -0.735743         3.568160
 H        -4.094579         0.358889         3.617604
 H        -4.234615        -1.342779         3.714952
