19
Iteration:  1318charge 0 multiplicity 1
 C         1.464858        -0.338373         0.493880
 C         0.177729        -0.329163        -0.152246
 C        -1.024898        -0.152722        -0.254744
 C        -2.456126        -0.044861        -0.469518
 C        -2.909474         1.216592        -1.148995
 O        -3.163484        -0.109731         0.908010
 C        -3.070803        -1.192906         1.667395
 C        -3.921086        -1.209942         2.898688
 O        -2.239265        -2.048719         1.302360
 H         2.326044        -0.241596        -0.161747
 H         1.608730         0.461740         1.169036
 H         1.634459        -1.388792         1.012917
 H        -2.863467        -0.992747        -0.939745
 H        -2.578345         2.204832        -0.727745
 H        -2.458867         1.300708        -2.234881
 H        -4.002312         1.148316        -1.285416
 H        -4.932511        -1.450695         2.603379
 H        -3.595618        -1.931538         3.618814
 H        -3.885405        -0.294282         3.481136
