19
Iteration:   778charge 0 multiplicity 1
 C         1.787919         1.063690        -0.105308
 C         0.551250         0.296596        -0.055692
 C        -0.482717        -0.373299        -0.012316
 C        -1.896054        -0.599889        -0.132548
 C        -2.635712         0.425831        -1.117817
 O        -2.434267        -0.567822         1.338342
 C        -3.553538        -1.292205         1.590917
 C        -3.909689        -1.244304         3.011853
 O        -4.310323        -1.935892         0.834608
 H         1.752346         1.494859        -1.098507
 H         1.801455         1.759333         0.664254
 H         2.672901         0.237473        -0.144675
 H        -2.183169        -1.627210        -0.464627
 H        -2.845046         1.378069        -0.518702
 H        -2.012291         0.800233        -1.951329
 H        -3.676679         0.066617        -1.403939
 H        -3.433485        -1.883325         3.823269
 H        -3.677061        -0.213497         3.441112
 H        -4.927469        -1.622133         3.059479
