19
Iteration:  3974
 C         1.760254        -0.744067         0.169665
 C         0.348787        -0.412274        -0.101572
 C        -0.858269        -0.294105        -0.147375
 C        -2.357982        -0.088472        -0.280628
 C        -2.511779         1.145243        -1.145791
 O        -2.827159         0.098934         1.062643
 C        -3.402646        -0.991944         1.632130
 C        -3.596997        -0.929513         3.084856
 O        -3.667780        -1.997337         1.075611
 H         1.975227        -1.562514        -0.602499
 H         2.479201         0.005763        -0.159125
 H         2.135653        -1.126119         1.115390
 H        -2.942010        -0.878956        -0.897833
 H        -3.392388         1.176780        -1.824903
 H        -2.350630         2.051507        -0.498926
 H        -1.651985         1.100111        -1.788356
 H        -2.926113        -1.712927         3.403208
 H        -3.458359         0.028672         3.574933
 H        -4.639098        -1.251256         3.251520
