19
Iteration:  1366charge 0 multiplicity 1
 C         1.593161        -0.417676         0.337417
 C         0.209981        -0.089314         0.079984
 C        -0.968801        -0.089315        -0.266754
 C        -2.386997        -0.051382        -0.436241
 C        -3.051848         1.157778        -1.203091
 O        -2.984957        -0.042217         0.966183
 C        -3.097938        -1.303821         1.630351
 C        -3.996454        -1.105078         2.857607
 O        -2.453509        -2.254510         1.319279
 H         2.356277         0.215468        -0.303600
 H         1.901852        -0.031454         1.291492
 H         1.855532        -1.394462         0.251383
 H        -2.712880        -0.986059        -0.864076
 H        -3.164308         2.015402        -0.581454
 H        -2.413368         1.609691        -1.996896
 H        -4.001086         0.869459        -1.663723
 H        -4.574450        -2.032379         3.004745
 H        -3.326195        -0.880024         3.732443
 H        -4.589107        -0.192761         2.892785
