19
Iteration:  1272charge 0 multiplicity 1
 C         1.414878        -0.383692         0.360809
 C         0.020385        -0.168163         0.237470
 C        -1.111537        -0.159298        -0.154488
 C        -2.485080        -0.102049        -0.505119
 C        -2.844317         1.230768        -1.116123
 O        -3.223134        -0.217693         0.724376
 C        -2.918885        -1.227351         1.590925
 C        -3.842008        -1.072581         2.885839
 O        -2.182515        -2.082015         1.293345
 H         1.841081        -0.745287        -0.464224
 H         1.958088         0.596875         0.617701
 H         1.545507        -1.142440         1.292818
 H        -2.705984        -1.043059        -1.133042
 H        -2.052979         2.015418        -0.771146
 H        -2.809175         1.233112        -2.170668
 H        -3.950141         1.479569        -0.801932
 H        -4.705228        -0.408700         2.830337
 H        -4.232415        -2.045370         3.270027
 H        -3.271090        -0.895861         3.767848
