19
Iteration:  1139
 C         1.690750         0.015633         0.363438
 C         0.275525        -0.125033         0.014031
 C        -0.893807        -0.047976        -0.308643
 C        -2.366735        -0.162420        -0.348330
 C        -2.941771         0.950990        -1.180392
 O        -2.937126        -0.075214         0.969948
 C        -3.194221        -1.239499         1.630008
 C        -3.811683        -1.198360         2.990935
 O        -2.930699        -2.281652         1.156287
 H         2.184118        -0.776208         0.787131
 H         2.408042         0.507441        -0.457036
 H         1.776472         0.833252         1.220723
 H        -2.581695        -1.238988        -0.689703
 H        -2.828471         1.907777        -0.587001
 H        -2.394795         0.930892        -2.225674
 H        -4.018018         0.820449        -1.506104
 H        -3.050998        -1.671180         3.611472
 H        -4.184443        -0.232932         3.339487
 H        -4.607693        -2.030992         2.869533
