19
Iteration:  2695
 C         2.200741        -0.012182        -0.034275
 C         0.673725        -0.159160        -0.048173
 C        -0.556352        -0.293170        -0.121988
 C        -2.009720        -0.495273        -0.152525
 C        -2.860546         0.553504        -0.899316
 O        -2.522891        -0.345154         1.279381
 C        -3.640571        -1.032250         1.577945
 C        -4.099568        -0.612533         2.949951
 O        -4.137617        -1.855324         0.781723
 H         2.625952         0.644406        -0.776860
 H         2.671211         0.388438         0.873059
 H         2.686866        -0.991289        -0.221085
 H        -2.348290        -1.451686        -0.553675
 H        -3.570915         0.794286        -0.185951
 H        -2.285982         1.384666        -1.357955
 H        -3.512630         0.108998        -1.723739
 H        -4.166447         0.481491         3.170451
 H        -4.987874        -1.048455         3.407920
 H        -3.142962        -0.831489         3.446946
