19
Iteration:   596
 C         1.817884         0.481395         0.113982
 C         0.392843         0.304591         0.119846
 C        -0.776785         0.111483        -0.146157
 C        -2.199297        -0.236742        -0.268288
 C        -2.907197         0.761067        -1.191402
 O        -2.770168        -0.338086         1.119804
 C        -3.350104        -1.494925         1.603304
 C        -3.781660        -1.141534         3.014598
 O        -3.492913        -2.535721         1.024094
 H         2.512913        -0.431797         0.336015
 H         2.203851         0.889931        -0.860777
 H         2.170275         1.148832         0.795934
 H        -2.280840        -1.252141        -0.786916
 H        -2.677253         1.801172        -1.029035
 H        -2.551710         0.692123        -2.252601
 H        -3.989443         0.483440        -1.198325
 H        -4.525689        -0.289269         3.061701
 H        -4.217805        -2.118056         3.444622
 H        -2.882528        -0.723475         3.560912
