19
Iteration:  4751
 C         2.014671        -0.634515        -0.475334
 C         0.682900        -0.436082        -0.042584
 C        -0.541069        -0.328172        -0.145004
 C        -2.022694        -0.396300        -0.030679
 C        -2.761829         0.629641        -0.923939
 O        -2.345542        -0.336823         1.353093
 C        -3.626209        -0.810160         1.650619
 C        -3.843980        -0.620122         3.136221
 O        -4.468356        -1.322190         0.852802
 H         2.379807         0.235455        -0.956784
 H         2.647723        -1.054812         0.254563
 H         1.780609        -1.473692        -1.134301
 H        -2.191961        -1.378627        -0.417658
 H        -3.740084         0.146136        -1.134331
 H        -2.952643         1.600925        -0.414994
 H        -2.168883         0.843615        -1.861636
 H        -3.037384        -1.076504         3.754405
 H        -3.864798         0.475555         3.268445
 H        -4.761320        -0.943507         3.642318
