19
Iteration:  2930
 C         2.001998         0.208936         0.011629
 C         0.668935        -0.405793        -0.030811
 C        -0.533773        -0.596220        -0.131765
 C        -2.033205        -0.596531        -0.168881
 C        -2.650197         0.598858        -1.031157
 O        -2.395333        -0.499790         1.250864
 C        -3.632670        -0.902414         1.589576
 C        -3.967897        -0.704426         3.035184
 O        -4.387294        -1.511092         0.814074
 H         1.883949         1.209794         0.773948
 H         2.800365        -0.439397         0.314244
 H         2.100067         0.658886        -0.936212
 H        -2.275211        -1.556232        -0.647490
 H        -3.651504         0.654404        -0.747481
 H        -2.020474         1.522063        -0.837462
 H        -2.605298         0.295957        -2.131584
 H        -3.452235        -1.360548         3.769652
 H        -3.530245         0.291531         3.297284
 H        -5.075609        -0.677378         3.137636
