19
Iteration:  3703charge 0 multiplicity 1
 C         2.004472         0.311044        -0.349266
 C         0.737382        -0.356561        -0.080231
 C        -0.450123        -0.579778        -0.003171
 C        -1.944923        -0.838356         0.044060
 C        -2.550693         0.051283        -1.079619
 O        -2.383010        -0.537578         1.423583
 C        -3.725788        -0.696142         1.605183
 C        -4.054009        -0.823832         3.059525
 O        -4.521404        -0.863331         0.761434
 H         2.438249        -0.045456        -1.297359
 H         1.968232         1.369324        -0.394823
 H         2.835132         0.002210         0.232860
 H        -2.088016        -1.962282         0.032150
 H        -3.660917        -0.271344        -1.159668
 H        -2.589304         1.185547        -0.766311
 H        -2.209679        -0.125453        -2.119121
 H        -5.150292        -0.700360         3.246646
 H        -3.868868        -1.886742         3.373419
 H        -3.511392        -0.276517         3.859727
