19
Iteration:  4933charge 0 multiplicity 1
 C         1.776359        -0.901658        -0.243037
 C         0.391749        -0.617795        -0.410641
 C        -0.812988        -0.402046        -0.364183
 C        -2.163089        -0.054230        -0.233416
 C        -2.399072         1.304532        -0.897824
 O        -2.676531        -0.044102         1.211829
 C        -3.421778        -0.983697         1.750483
 C        -4.098991        -0.571314         3.077864
 O        -3.661135        -2.049471         1.334870
 H         2.394738        -0.968826        -1.151933
 H         2.122125         0.024631         0.249877
 H         2.150491        -1.758596         0.264643
 H        -2.521406        -0.956355        -0.804181
 H        -3.225918         1.326598        -1.559296
 H        -2.414506         2.044224        -0.136215
 H        -1.549952         1.641096        -1.524498
 H        -5.011472        -1.203077         2.980355
 H        -3.584146        -0.748883         3.998780
 H        -4.325927         0.468658         3.112317
