19
Iteration:  1111charge 0 multiplicity 1
 C         1.812442         0.158457         0.308508
 C         0.367943         0.034535        -0.088412
 C        -0.835910        -0.207809        -0.138091
 C        -2.306111        -0.193323        -0.322971
 C        -2.937536         0.894949        -1.174774
 O        -2.980160        -0.075731         1.053943
 C        -3.294167        -1.294532         1.631697
 C        -3.827402        -1.137979         3.024132
 O        -3.071566        -2.355597         0.983514
 H         2.104347        -0.740660         1.052888
 H         2.551012         0.273103        -0.368616
 H         1.835172         1.052559         0.907016
 H        -2.548021        -1.189605        -0.594516
 H        -2.379169         1.836166        -1.003821
 H        -3.024616         0.662272        -2.153677
 H        -3.964168         0.868242        -0.775187
 H        -3.214269        -1.886229         3.563610
 H        -3.489616        -0.108897         3.208640
 H        -4.884885        -1.261936         2.993821
