19
Iteration:  4327
 C         1.740557        -0.768866        -0.342352
 C         0.276656        -0.701075        -0.228363
 C        -0.963726        -0.678584        -0.119552
 C        -2.291527        -0.062454        -0.223576
 C        -2.111817         1.295871        -0.888585
 O        -2.973371         0.104853         1.028970
 C        -3.444188        -0.938513         1.746290
 C        -4.077445        -0.563445         3.038930
 O        -3.301635        -2.114082         1.295522
 H         2.149049        -1.363022         0.515930
 H         2.383806        -0.919822        -1.216406
 H         1.945338         0.222925        -0.046119
 H        -2.995576        -0.589163        -0.778189
 H        -3.111915         1.628210        -1.245692
 H        -1.531586         2.025469        -0.198510
 H        -1.456800         1.216661        -1.840054
 H        -4.786406        -1.345110         3.310955
 H        -3.270695        -0.516461         3.785644
 H        -4.573706         0.445215         3.052363
