19
Iteration:  3771charge 0 multiplicity 1
 C         1.907245         0.292510        -0.586557
 C         0.644982        -0.349991        -0.111173
 C        -0.484512        -0.647069         0.164842
 C        -1.924870        -0.790324         0.057547
 C        -2.170060         0.447869        -0.919178
 O        -2.416858        -0.746405         1.411526
 C        -3.739059        -0.835643         1.650053
 C        -4.237864        -0.553502         3.128391
 O        -4.503200        -1.195806         0.701310
 H         2.122177        -0.069982        -1.541226
 H         1.857074         1.377558        -0.729627
 H         2.780569         0.005365        -0.028228
 H        -2.230968        -1.776388        -0.452292
 H        -3.379137         0.478439        -1.013069
 H        -1.621922         1.290660        -0.517727
 H        -1.822777         0.189612        -1.948412
 H        -5.324460        -0.553587         3.004809
 H        -3.854055        -1.407335         3.662847
 H        -3.871280         0.434172         3.482603
