19
Iteration:  3102
 C         1.647667        -0.816167         0.388706
 C         0.338110        -0.361655         0.069168
 C        -0.789225        -0.130355        -0.253359
 C        -2.193752        -0.045771        -0.376575
 C        -2.828068         0.982683        -1.341557
 O        -2.904726         0.072620         0.949507
 C        -3.249595        -0.988423         1.650926
 C        -4.002658        -0.718238         2.945097
 O        -3.059244        -2.164444         1.267593
 H         1.565094        -1.126351         1.432595
 H         2.112100        -1.684039        -0.153521
 H         2.381167        -0.007756         0.170132
 H        -2.547946        -1.059091        -0.575559
 H        -3.845832         0.892400        -1.357623
 H        -2.652522         2.040542        -1.045175
 H        -2.332254         0.708310        -2.313950
 H        -3.427978         0.009140         3.537199
 H        -4.845023        -0.093270         2.640051
 H        -4.137412        -1.605131         3.523434
