19
Iteration:   336charge 0 multiplicity 1
 C         1.635534        -0.198304         0.364962
 C         0.152565        -0.045340         0.026471
 C        -1.061958         0.098241        -0.068213
 C        -2.484047        -0.131989        -0.357288
 C        -3.098855         1.125571        -1.273005
 O        -3.363014        -0.191037         0.906213
 C        -3.013541        -1.266956         1.615646
 C        -3.805305        -1.476473         2.817153
 O        -2.094696        -2.027712         1.301625
 H         2.036694         0.711089         0.150595
 H         1.600874        -0.327747         1.474804
 H         2.252559        -1.102157        -0.149971
 H        -2.625413        -1.018120        -0.909127
 H        -3.234144         2.054839        -0.588245
 H        -2.351658         1.383660        -2.026062
 H        -4.181397         0.872495        -1.638049
 H        -3.402274        -2.363945         3.267109
 H        -3.906111        -0.578906         3.414867
 H        -4.828924        -1.718509         2.492489
