19
Iteration:  2921charge 0 multiplicity 1
 C         1.957494         0.231640         0.007736
 C         0.645994        -0.392827        -0.107162
 C        -0.544690        -0.567802        -0.094961
 C        -1.935731        -0.640719        -0.147563
 C        -2.659888         0.553770        -1.018509
 O        -2.388222        -0.554015         1.293135
 C        -3.688886        -0.912284         1.593722
 C        -3.963988        -0.671882         3.045201
 O        -4.355929        -1.439480         0.757299
 H         2.055022         1.277616         0.740650
 H         2.765241        -0.469060         0.300800
 H         2.313235         0.609380        -0.978479
 H        -2.279417        -1.654160        -0.451141
 H        -3.658659         0.685116        -0.604181
 H        -2.086481         1.495478        -0.864089
 H        -2.757977         0.327558        -2.132623
 H        -3.634170        -1.555657         3.644019
 H        -3.603879         0.275580         3.404812
 H        -5.038820        -0.638808         3.107139
