19
Iteration:  4245
 C         1.389527        -1.425861         0.068901
 C         0.220832        -0.559829        -0.090130
 C        -0.872219        -0.081563        -0.200335
 C        -2.370800         0.121213        -0.347965
 C        -2.632768         1.429991        -1.120807
 O        -3.024998         0.199203         1.004730
 C        -3.130228        -0.979230         1.689146
 C        -3.945642        -0.772436         2.903817
 O        -2.718730        -2.087999         1.397092
 H         1.214588        -2.483284         0.296910
 H         1.939261        -1.370409        -0.903862
 H         2.230602        -1.130352         0.840855
 H        -2.911105        -0.791684        -0.800896
 H        -3.616409         1.897988        -0.900065
 H        -1.922710         2.184509        -0.845969
 H        -2.451385         1.132632        -2.120696
 H        -4.998234        -0.902450         2.621379
 H        -3.765647        -1.634748         3.549078
 H        -3.802340         0.211366         3.330953
