19
Iteration:  3373charge 0 multiplicity 1
 C         1.794808        -0.877498        -0.061326
 C         0.406592        -0.382387         0.005493
 C        -0.793938        -0.168864        -0.012470
 C        -2.262134        -0.217309        -0.197480
 C        -2.602488         0.907711        -1.290067
 O        -2.993750         0.265589         1.042056
 C        -3.394339        -0.962020         1.691104
 C        -4.406723        -0.742454         2.688093
 O        -2.792652        -1.994052         1.506517
 H         1.789572        -2.052220        -0.156547
 H         2.360016        -0.452257        -0.943009
 H         2.207771        -0.944160         0.961016
 H        -2.642310        -1.183627        -0.646911
 H        -3.677684         0.825531        -1.407522
 H        -2.280352         1.863647        -1.017733
 H        -2.192523         0.558032        -2.241395
 H        -5.128391         0.089125         2.506335
 H        -4.958266        -1.624935         3.018729
 H        -3.873800        -0.424011         3.610000
