19
Iteration:  4806
 C         2.029601        -0.645315        -0.521852
 C         0.594152        -0.618640        -0.427894
 C        -0.550010        -0.413716        -0.059565
 C        -2.083129        -0.262904         0.013202
 C        -2.493446         0.740489        -0.969027
 O        -2.579348         0.038374         1.407321
 C        -3.581999        -0.760470         1.753043
 C        -4.094609        -0.782166         3.116563
 O        -4.188905        -1.582094         1.008363
 H         2.496356         0.115570        -1.157093
 H         2.400954        -0.511234         0.471789
 H         2.326685        -1.654793        -0.906582
 H        -2.474243        -1.195748        -0.308011
 H        -3.585166         1.108503        -0.989794
 H        -1.938782         1.710135        -0.797499
 H        -2.307699         0.275782        -1.933860
 H        -3.598395        -1.604287         3.722743
 H        -3.822488         0.042449         3.796784
 H        -5.162740        -0.990112         2.927198
