19
Iteration:  4651charge 0 multiplicity 1
 C         1.921775        -0.160805        -0.092283
 C         0.540216        -0.564068        -0.245846
 C        -0.662646        -0.845081        -0.396552
 C        -2.132470        -0.671402        -0.286190
 C        -2.593967         0.708927        -0.822133
 O        -2.233492        -0.674830         1.282641
 C        -3.527767        -0.714449         1.668967
 C        -3.739841        -0.638029         3.161269
 O        -4.533857        -0.919432         0.950931
 H         2.027445         0.897591        -0.044492
 H         2.414691        -0.682562         0.705088
 H         2.331866        -0.374216        -1.105498
 H        -2.625352        -1.538309        -0.711297
 H        -3.619238         0.844611        -0.509354
 H        -1.953684         1.470517        -0.373616
 H        -2.635976         0.847729        -2.018875
 H        -2.808577        -0.676138         3.752661
 H        -4.184673         0.359633         3.443469
 H        -4.444532        -1.356002         3.592123
