19
Iteration:   803charge 0 multiplicity 1
 C         1.698591         1.112549        -0.151458
 C         0.606760         0.131265        -0.058859
 C        -0.509170        -0.356221        -0.054798
 C        -1.959720        -0.641693        -0.071807
 C        -2.581826         0.357716        -0.965255
 O        -2.391961        -0.551568         1.314391
 C        -3.614895        -1.255968         1.598361
 C        -3.970178        -1.258265         3.103640
 O        -4.199781        -1.826398         0.670863
 H         1.340817         1.855668        -1.023405
 H         1.796245         1.592570         0.794896
 H         2.615309         0.588242        -0.510347
 H        -2.230657        -1.596469        -0.433584
 H        -2.878526         1.288553        -0.562597
 H        -1.780175         0.666466        -1.729000
 H        -3.432972        -0.058908        -1.466127
 H        -3.144424        -1.444583         3.910949
 H        -4.233526        -0.189144         3.432660
 H        -4.720120        -2.079270         3.341950
