19
Iteration:  1091charge 0 multiplicity 1
 C         1.759334         0.263296         0.246870
 C         0.362698         0.055134         0.008231
 C        -0.837982        -0.099710        -0.061574
 C        -2.286085        -0.216093        -0.260296
 C        -2.901198         0.889200        -1.164197
 O        -2.845242        -0.184671         1.052176
 C        -3.243686        -1.343090         1.599416
 C        -3.793703        -1.057397         2.974783
 O        -3.269398        -2.444152         0.965759
 H         2.165684        -0.560517         0.965989
 H         2.311066         0.047410        -0.711894
 H         2.169363         1.112457         0.575868
 H        -2.497291        -1.146770        -0.685758
 H        -2.195540         1.675581        -1.185637
 H        -3.086729         0.457284        -2.142210
 H        -3.875228         1.230664        -0.905182
 H        -3.806898        -1.995691         3.647526
 H        -3.287829        -0.160815         3.450146
 H        -4.866835        -0.844294         2.902119
