19
Iteration:  1273
 C         1.422424        -0.378325         0.366692
 C         0.021306        -0.167463         0.238905
 C        -1.112502        -0.167823        -0.161952
 C        -2.482706        -0.115227        -0.509311
 C        -2.846654         1.236518        -1.111706
 O        -3.225062        -0.211866         0.734754
 C        -2.917696        -1.222375         1.591051
 C        -3.841665        -1.076559         2.879819
 O        -2.185599        -2.075592         1.294606
 H         1.838688        -0.747814        -0.507913
 H         1.949259         0.549919         0.628820
 H         1.527970        -1.146289         1.291138
 H        -2.716141        -1.043166        -1.153847
 H        -2.054576         2.020290        -0.766979
 H        -2.824829         1.231899        -2.198299
 H        -3.946092         1.462820        -0.799046
 H        -4.712942        -0.443628         2.804652
 H        -4.193389        -2.034297         3.263376
 H        -3.278804        -0.893979         3.760349
