19
Iteration:  1883
 C         2.023000         0.317382         0.054355
 C         0.637666        -0.017036        -0.032636
 C        -0.565948        -0.145007        -0.083504
 C        -1.970367        -0.517244        -0.205887
 C        -2.972681         0.476215        -1.004160
 O        -2.418389        -0.565315         1.168471
 C        -3.569886        -1.127942         1.525502
 C        -3.948853        -0.627373         2.972888
 O        -4.164876        -2.007567         0.951064
 H         2.734230         0.223360        -0.943442
 H         2.136529         1.441512         0.360154
 H         2.435912        -0.185957         0.869526
 H        -2.108377        -1.445799        -0.770915
 H        -3.016406         1.402030        -0.503444
 H        -2.604161         0.688926        -2.121317
 H        -3.958983        -0.090060        -1.031384
 H        -3.476500         0.349175         3.153370
 H        -5.034580        -0.524564         3.059975
 H        -3.473769        -1.354261         3.616020
