19
Iteration:   205charge 0 multiplicity 1
 C         1.492401         0.255719         0.353554
 C         0.097255         0.006210         0.181094
 C        -1.039449        -0.093955        -0.185273
 C        -2.466282        -0.102099        -0.461749
 C        -2.887128         1.182549        -1.186819
 O        -3.100409        -0.246985         0.822110
 C        -3.039484        -1.439721         1.570269
 C        -3.690325        -1.296676         3.026432
 O        -2.511508        -2.482067         1.204625
 H         2.046877        -0.079116        -0.429217
 H         1.590100         1.349682         0.321759
 H         2.070724        -0.079395         1.262257
 H        -2.840528        -0.871960        -1.156383
 H        -2.972820         2.029100        -0.372641
 H        -2.165442         1.663969        -1.860852
 H        -3.843481         1.110482        -1.848982
 H        -4.452700        -2.049819         3.274116
 H        -3.060298        -1.537373         3.906355
 H        -4.263613        -0.375783         3.219749
