19
Iteration:  3576
 C         1.845169        -0.080927         0.316087
 C         0.511472        -0.343627        -0.027072
 C        -0.630077        -0.407171        -0.362915
 C        -2.058848        -0.603603        -0.309277
 C        -2.838571         0.305658        -1.224704
 O        -2.294534        -0.316012         1.166057
 C        -3.473303        -0.855971         1.662149
 C        -3.672937        -0.611368         3.100214
 O        -4.350128        -1.410765         0.927748
 H         2.463239        -0.521900        -0.478172
 H         2.178536         1.072758         0.283107
 H         2.221837        -0.364690         1.364186
 H        -2.361434        -1.712681        -0.428889
 H        -3.948908         0.123996        -0.927420
 H        -2.683135         1.319380        -1.125880
 H        -2.665405         0.076083        -2.246174
 H        -4.495894         0.084043         3.325197
 H        -3.904858        -1.483914         3.657236
 H        -2.790992        -0.127404         3.532645
