19
Iteration:   562charge 0 multiplicity 1
 C         1.766441         0.513485         0.100277
 C         0.293741         0.272109        -0.014998
 C        -0.837056        -0.151779         0.018876
 C        -2.201437        -0.336441        -0.289511
 C        -2.739172         0.832127        -1.114975
 O        -3.041980        -0.181689         1.045161
 C        -3.293218        -1.437390         1.578686
 C        -3.726903        -1.154280         2.947991
 O        -3.272149        -2.509238         1.048314
 H         2.342233        -0.279748         0.801356
 H         2.215540         0.552693        -0.888782
 H         1.879762         1.442245         0.497255
 H        -2.445940        -1.414445        -0.537560
 H        -2.509636         1.758104        -0.542285
 H        -2.463276         0.793260        -2.154280
 H        -3.847159         0.817692        -0.935143
 H        -4.022879        -0.048993         3.040362
 H        -4.552521        -1.949292         3.194802
 H        -2.819009        -1.424402         3.629002
