19
Iteration:  1842charge 0 multiplicity 1
 C         2.053384         0.424697         0.016588
 C         0.626406         0.118137        -0.107584
 C        -0.577449        -0.181131        -0.211505
 C        -1.955108        -0.625847        -0.161439
 C        -2.875140         0.282218        -0.844221
 O        -2.309615        -0.637206         1.298203
 C        -3.586162        -1.127494         1.583290
 C        -4.003422        -0.715328         2.920576
 O        -4.297192        -1.772714         0.812596
 H         2.614810        -0.087726        -0.724233
 H         2.094682         1.531829        -0.220927
 H         2.461684         0.340231         1.016233
 H        -2.000388        -1.672617        -0.408517
 H        -2.794327         1.311952        -0.518796
 H        -2.662977         0.257861        -1.935281
 H        -3.987319         0.077842        -0.811261
 H        -3.147114        -0.371840         3.509772
 H        -4.637639         0.197568         2.734949
 H        -4.524605        -1.477968         3.552923
