19
Iteration:  4407charge 0 multiplicity 1
 C         2.039523        -0.657704        -0.445261
 C         0.519104        -0.668281        -0.204942
 C        -0.658429        -0.452186        -0.118776
 C        -2.112484        -0.244373        -0.087238
 C        -2.545439         1.036536        -0.824745
 O        -2.657949        -0.031241         1.200026
 C        -3.534051        -0.901122         1.712375
 C        -4.059726        -0.502400         3.015906
 O        -3.935408        -1.925182         1.090194
 H         2.484873        -0.883127         0.464976
 H         2.106362        -1.458869        -1.146035
 H         2.337401         0.283077        -0.844657
 H        -2.701010        -1.109210        -0.440541
 H        -3.645597         1.300628        -0.785524
 H        -2.128666         2.018456        -0.375688
 H        -2.165173         0.914453        -1.822411
 H        -4.074797        -1.391157         3.701611
 H        -3.472632         0.306908         3.501777
 H        -5.132181        -0.342565         2.861524
