19
Iteration:  4861charge 0 multiplicity 1
 C         1.853397        -0.717455        -0.537776
 C         0.517748        -0.519956        -0.130303
 C        -0.704812        -0.489740         0.035533
 C        -2.173628        -0.298906        -0.091199
 C        -2.394766         1.056262        -0.866403
 O        -2.634950        -0.031694         1.234189
 C        -3.520419        -0.938951         1.685426
 C        -3.951635        -0.504623         2.962467
 O        -3.996430        -1.923224         1.122506
 H         2.031543        -0.263894        -1.516071
 H         2.564822        -0.202090         0.075796
 H         2.279683        -1.726480        -0.812077
 H        -2.724083        -1.104181        -0.534470
 H        -3.479619         1.393200        -0.642484
 H        -1.636547         1.791862        -0.428176
 H        -2.325294         1.188529        -1.927112
 H        -4.068438        -1.470649         3.571911
 H        -3.235799         0.255290         3.352720
 H        -4.924662         0.037167         2.795556
