19
Iteration:  4722
 C         2.148419        -0.581841        -0.348062
 C         0.689224        -0.400445        -0.138816
 C        -0.550389        -0.251534        -0.144377
 C        -2.033998        -0.547978        -0.251674
 C        -2.808958         0.643489        -0.934007
 O        -2.300545        -0.609017         1.218842
 C        -3.657409        -0.785831         1.681620
 C        -3.883506        -0.588158         3.249120
 O        -4.530029        -1.136357         1.007894
 H         2.670264         0.416925        -0.713356
 H         2.650771        -1.137919         0.517261
 H         2.217041        -1.198872        -1.285684
 H        -2.180331        -1.594402        -0.838668
 H        -3.892664         0.313265        -1.155547
 H        -2.734532         1.489581        -0.162082
 H        -2.324661         0.939565        -1.822748
 H        -3.049359        -0.795837         3.919574
 H        -4.210690         0.446194         3.327499
 H        -4.809042        -1.127057         3.544252
