19
Iteration:  3006charge 0 multiplicity 1
 C         1.944234        -0.278651         0.185302
 C         0.512175        -0.236116        -0.020269
 C        -0.700915        -0.351327        -0.084551
 C        -2.091754        -0.312779        -0.281723
 C        -2.500142         0.722169        -1.258080
 O        -2.739634        -0.024057         1.044179
 C        -3.563786        -1.076270         1.665026
 C        -3.771179        -0.708860         3.072723
 O        -4.127675        -2.003052         1.029061
 H         1.955192        -0.005802         1.167444
 H         2.469508        -1.214679         0.172020
 H         2.523891         0.408978        -0.471001
 H        -2.251488        -1.317838        -0.767721
 H        -3.485057         0.584676        -1.577527
 H        -2.487696         1.759360        -0.817176
 H        -1.757761         0.603999        -2.132781
 H        -2.725397        -0.701150         3.532499
 H        -4.091988         0.364723         3.097198
 H        -4.338584        -1.481614         3.602375
