19
Iteration:  3184
 C         1.514004        -0.842544         0.408792
 C         0.117853        -0.620503         0.111912
 C        -1.072983        -0.439313        -0.166775
 C        -2.448403        -0.094610        -0.610265
 C        -2.493757         1.362878        -1.078875
 O        -3.271405        -0.069195         0.658644
 C        -3.089962        -1.026763         1.600027
 C        -4.090552        -0.646947         2.801025
 O        -2.329298        -1.936678         1.591359
 H         1.744286        -1.582660         1.231326
 H         1.860820        -1.275160        -0.522208
 H         2.107274         0.076574         0.649574
 H        -2.813798        -0.931272        -1.272242
 H        -3.603999         1.610468        -1.282779
 H        -1.971153         2.027147        -0.420350
 H        -2.066182         1.489238        -2.041425
 H        -3.820355         0.346128         3.201743
 H        -5.146090        -0.822047         2.448664
 H        -3.993119        -1.488770         3.540390
