19
Iteration:   547charge 0 multiplicity 1
 C         1.712152         0.553278         0.094882
 C         0.366083         0.135272         0.009830
 C        -0.794282        -0.191827        -0.101476
 C        -2.318254        -0.312148        -0.193530
 C        -2.727741         0.830614        -1.034428
 O        -3.109847        -0.179137         0.947743
 C        -3.313898        -1.354027         1.572290
 C        -3.749865        -1.234878         3.014892
 O        -3.154176        -2.454231         1.059585
 H         2.244028        -0.011992         0.819280
 H         2.250043         0.388342        -0.825958
 H         1.947661         1.658563         0.400922
 H        -2.563566        -1.151988        -0.764398
 H        -2.358015         1.801358        -0.685742
 H        -2.156782         0.753776        -1.973331
 H        -3.769334         0.814539        -1.273103
 H        -3.887242        -0.191030         3.333012
 H        -4.677079        -1.770575         3.100600
 H        -2.996905        -1.628326         3.718915
