19
Iteration:  3244
 C         1.467945        -0.852791         0.352000
 C         0.147417        -0.624106        -0.108008
 C        -1.070810        -0.504424        -0.161133
 C        -2.410080        -0.149720        -0.443248
 C        -2.333733         1.326124        -1.011708
 O        -3.392418        -0.107822         0.617742
 C        -3.135592        -0.939998         1.644099
 C        -4.206151        -0.806918         2.765730
 O        -2.232201        -1.704872         1.656347
 H         1.490170        -1.880948         0.770844
 H         2.169536        -0.914295        -0.539522
 H         1.926306        -0.037283         0.915516
 H        -2.770448        -0.784430        -1.309762
 H        -3.393685         1.609401        -1.241750
 H        -1.854722         2.192574        -0.284007
 H        -1.702286         1.287327        -2.032569
 H        -4.509590         0.246728         2.936021
 H        -5.169098        -1.282991         2.559212
 H        -3.780497        -1.144919         3.711341
