19
Iteration:  3747
 C         1.934819         0.354857        -0.510687
 C         0.664334        -0.280726        -0.240735
 C        -0.371611        -0.823463         0.100182
 C        -1.883750        -0.814050         0.140275
 C        -2.288106         0.292196        -0.903213
 O        -2.441866        -0.623648         1.527477
 C        -3.804923        -0.820221         1.624695
 C        -4.166592        -0.689207         3.054037
 O        -4.557216        -1.022905         0.660433
 H         2.227163         0.129098        -1.544790
 H         1.762154         1.404998        -0.573880
 H         2.713138         0.100513         0.154506
 H        -2.249449        -1.805312        -0.184539
 H        -3.456616         0.444073        -1.060816
 H        -1.528842         1.122813        -0.728466
 H        -1.990496        -0.155691        -1.859338
 H        -5.269407        -0.497376         3.097578
 H        -3.758316        -1.602281         3.527390
 H        -3.592011         0.239270         3.322805
