19
Iteration:  1019charge 0 multiplicity 1
 C         1.912133         0.492772         0.043968
 C         0.506986         0.194418        -0.165148
 C        -0.673413        -0.048118        -0.029399
 C        -2.117686        -0.336718        -0.091437
 C        -2.826779         0.636448        -0.995671
 O        -2.787886        -0.234569         1.163992
 C        -3.454512        -1.363367         1.551493
 C        -3.903740        -1.103561         2.943493
 O        -3.676160        -2.385287         0.914643
 H         2.137883         0.480531         1.061136
 H         2.619824        -0.240792        -0.482479
 H         2.393551         1.555474        -0.312800
 H        -2.331427        -1.379167        -0.605949
 H        -2.658688         1.588222        -0.447985
 H        -2.413764         0.747637        -2.122457
 H        -3.863838         0.353633        -1.254385
 H        -4.892731        -1.501298         3.186974
 H        -3.206495        -1.629291         3.597541
 H        -3.779455        -0.070016         3.351841
