19
Iteration:  4948charge 0 multiplicity 1
 C         1.813861        -0.909371        -0.197551
 C         0.388215        -0.629356        -0.398649
 C        -0.839582        -0.433186        -0.286534
 C        -2.295466        -0.102089        -0.297514
 C        -2.456609         1.328866        -0.908961
 O        -2.602719         0.038125         1.229527
 C        -3.444122        -1.016502         1.763823
 C        -4.126857        -0.527335         3.089183
 O        -3.483030        -2.060983         1.203146
 H         2.240056        -1.226679        -1.178379
 H         2.346260        -0.121951         0.345367
 H         1.661179        -1.888362         0.434731
 H        -3.078521        -0.795554        -0.602166
 H        -3.397736         1.355420        -1.513417
 H        -2.471988         2.077704        -0.080665
 H        -1.664901         1.492048        -1.597820
 H        -5.151131        -0.919693         3.276901
 H        -3.556088        -1.077571         3.893445
 H        -4.118397         0.599532         3.254281
