19
Iteration:  1438
 C         1.760817        -0.142989         0.091295
 C         0.359529        -0.103193        -0.031180
 C        -0.845861         0.047161         0.004910
 C        -2.290317        -0.025327        -0.189401
 C        -2.759073         1.017783        -1.326911
 O        -3.116975        -0.109938         1.033012
 C        -3.243742        -1.289021         1.658711
 C        -3.931491        -1.080998         3.013440
 O        -2.985743        -2.422827         1.165442
 H         2.206469         0.779187         0.053313
 H         1.985142        -0.420664         1.137506
 H         2.372191        -0.946292        -0.597323
 H        -2.546551        -0.996602        -0.744379
 H        -2.429932         2.037406        -1.293340
 H        -2.316090         0.735227        -2.366677
 H        -3.791755         0.977023        -1.488022
 H        -3.480754        -1.715260         3.752602
 H        -4.028136        -0.021231         3.145656
 H        -5.016684        -1.328848         2.904340
