19
Iteration:  3407
 C         1.850295        -0.688153        -0.096784
 C         0.420964        -0.561485         0.047609
 C        -0.762773        -0.193242         0.101769
 C        -2.167602        -0.140349        -0.212554
 C        -2.536676         0.828836        -1.395249
 O        -3.022911         0.209268         1.011710
 C        -3.374600        -0.944273         1.754101
 C        -4.279946        -0.669766         2.910047
 O        -3.150142        -2.105854         1.346897
 H         2.088110        -1.752330        -0.566773
 H         2.418801         0.127082        -0.705512
 H         2.409644        -0.485680         0.866570
 H        -2.715186        -1.030998        -0.593018
 H        -3.556542         0.717251        -1.580435
 H        -2.442961         1.923582        -1.218571
 H        -1.898507         0.635845        -2.303339
 H        -5.012075         0.042556         2.486505
 H        -4.736835        -1.596924         3.197561
 H        -3.673333        -0.143017         3.712233
