19
Iteration:  4395
 C         1.947916        -0.651044        -0.475324
 C         0.559235        -0.642711        -0.138842
 C        -0.678653        -0.554528        -0.106655
 C        -2.143047        -0.209714        -0.170000
 C        -2.445640         1.096776        -0.818663
 O        -2.769336         0.055129         1.192242
 C        -3.544387        -0.994203         1.659294
 C        -4.028741        -0.502553         3.019712
 O        -3.893912        -1.990872         1.171971
 H         2.579285        -0.931222         0.340638
 H         2.301596        -1.351113        -1.207461
 H         2.360434         0.268752        -0.760148
 H        -2.596679        -1.036496        -0.644228
 H        -3.522311         1.259213        -0.597151
 H        -1.651491         1.797115        -0.328211
 H        -2.336583         1.151587        -1.903516
 H        -4.124270        -1.380786         3.705462
 H        -3.502485         0.374098         3.458917
 H        -5.006211        -0.025199         2.803238
