19
Iteration:  1357charge 0 multiplicity 1
 C         1.559958        -0.399422         0.395719
 C         0.172373        -0.183651        -0.053169
 C        -1.002214        -0.025479        -0.275581
 C        -2.431120         0.009587        -0.374885
 C        -2.977270         1.141334        -1.213337
 O        -3.009963        -0.073524         0.985726
 C        -3.081265        -1.215803         1.608211
 C        -3.933918        -1.128735         2.820123
 O        -2.428593        -2.261050         1.375052
 H         2.181072         0.108455        -0.354382
 H         1.702034         0.091989         1.452954
 H         1.890052        -1.402424         0.423532
 H        -2.716592        -0.862098        -0.940556
 H        -3.183546         2.007825        -0.554694
 H        -2.255342         1.354308        -1.881427
 H        -3.954233         0.889599        -1.699370
 H        -4.621674        -2.020670         2.831071
 H        -3.248004        -1.295605         3.706944
 H        -4.524916        -0.229302         2.682062
