19
Iteration:  4798charge 0 multiplicity 1
 C         2.032575        -0.698206        -0.523057
 C         0.567029        -0.557017        -0.443271
 C        -0.573284        -0.407362        -0.003743
 C        -2.028233        -0.287781         0.041385
 C        -2.528158         0.722697        -0.941136
 O        -2.524759         0.036966         1.340632
 C        -3.634419        -0.789623         1.673947
 C        -4.040033        -0.763652         3.171424
 O        -4.204110        -1.531344         0.972880
 H         2.226984         0.249082        -1.034787
 H         2.342454        -0.538496         0.521128
 H         2.500394        -1.612074        -0.840251
 H        -2.381245        -1.344855        -0.214088
 H        -3.660864         0.649782        -0.692470
 H        -2.034632         1.756419        -0.801636
 H        -2.265895         0.398250        -1.937965
 H        -3.609228        -1.664057         3.591081
 H        -4.018667         0.141409         3.757540
 H        -5.091102        -1.066962         3.251971
