19
Iteration:    41charge 0 multiplicity 1
 C         1.876722         0.725657         0.230679
 C         0.492957         0.276638        -0.089339
 C        -0.719147         0.151895        -0.205053
 C        -2.137582        -0.295311        -0.226415
 C        -3.137747         0.628286        -0.951464
 O        -2.581153        -0.413009         1.192081
 C        -3.359444        -1.462087         1.555120
 C        -3.909774        -1.370617         3.048114
 O        -3.532454        -2.324486         0.737529
 H         2.175636         0.323688         1.295902
 H         2.573369         0.403245        -0.539146
 H         1.890595         1.837977         0.301756
 H        -2.092767        -1.290314        -0.716337
 H        -3.364651         1.481486        -0.227543
 H        -2.687120         1.087029        -1.783068
 H        -3.923270        -0.050581        -1.295241
 H        -4.792989        -2.064108         3.137933
 H        -3.108647        -1.810611         3.674698
 H        -4.212173        -0.321283         3.244676
