19
Iteration:  1217
 C         1.576158        -0.307257         0.397377
 C         0.217269        -0.109693         0.049053
 C        -0.996501        -0.014264        -0.049465
 C        -2.379191        -0.075302        -0.499468
 C        -2.958269         1.174791        -1.103170
 O        -3.312053        -0.261304         0.645390
 C        -3.083809        -1.270729         1.621160
 C        -3.709749        -1.064221         3.007802
 O        -2.463089        -2.204046         1.274997
 H         1.900393        -1.192523        -0.043595
 H         2.326999         0.470839         0.061739
 H         1.816656        -0.566340         1.536141
 H        -2.495277        -1.018437        -1.154751
 H        -3.320820         2.100866        -0.466773
 H        -2.348484         1.501984        -1.915501
 H        -3.967045         0.794906        -1.582993
 H        -3.502711        -0.088307         3.449271
 H        -4.812786        -1.164541         2.905729
 H        -3.267512        -1.735099         3.716182
