19
Iteration:  3800charge 0 multiplicity 1
 C         1.981022         0.149129        -0.607464
 C         0.738889        -0.342163        -0.022679
 C        -0.405990        -0.677546         0.118142
 C        -1.903520        -0.657775         0.039621
 C        -2.401677         0.554100        -0.742300
 O        -2.398610        -0.593830         1.394393
 C        -3.792572        -0.944835         1.548083
 C        -4.156448        -0.468662         2.969879
 O        -4.553671        -1.395519         0.753270
 H         2.290773        -0.383485        -1.600196
 H         2.072325         1.225770        -0.786993
 H         2.927004        -0.152138        -0.062885
 H        -2.207047        -1.630700        -0.298742
 H        -3.404181         0.141938        -0.814342
 H        -2.525041         1.489751        -0.121886
 H        -1.989526         0.634965        -1.718210
 H        -5.264197        -0.590642         2.933126
 H        -3.694242        -1.179858         3.686339
 H        -3.799901         0.584459         3.111594
