19
Iteration:  4346
 C         1.688086        -0.650785        -0.322994
 C         0.278114        -0.648103        -0.258207
 C        -0.871994        -0.577806        -0.082249
 C        -2.260625        -0.106623        -0.223505
 C        -2.014570         1.289550        -0.927834
 O        -2.937670         0.135414         1.107955
 C        -3.443930        -1.006044         1.758749
 C        -4.043791        -0.554479         2.993064
 O        -3.550491        -2.235137         1.329456
 H         2.410991        -1.360207         0.236808
 H         2.018703        -1.137805        -1.304669
 H         2.368569         0.274924        -0.440957
 H        -2.890429        -0.876860        -0.789891
 H        -3.001546         1.777377        -1.033077
 H        -1.180500         1.632829        -0.470396
 H        -1.568627         1.078143        -1.944755
 H        -4.622848        -1.329018         3.441084
 H        -3.294380        -0.154941         3.659969
 H        -4.521290         0.397252         2.738790
