19
Iteration:  4643charge 0 multiplicity 1
 C         1.864564        -0.118215        -0.130813
 C         0.483886        -0.621510        -0.143494
 C        -0.649605        -0.904555        -0.434418
 C        -2.085468        -0.620264        -0.268611
 C        -2.611442         0.754863        -0.878137
 O        -2.180246        -0.673178         1.280903
 C        -3.547835        -0.811633         1.648040
 C        -3.752601        -0.615190         3.189347
 O        -4.528760        -0.891258         0.976898
 H         2.019372         1.009517         0.013345
 H         2.444690        -0.676051         0.617471
 H         2.430838        -0.299811        -1.100084
 H        -2.786839        -1.508627        -0.594301
 H        -3.616603         1.058711        -0.624899
 H        -1.883712         1.484357        -0.421439
 H        -2.431103         0.657236        -2.007006
 H        -2.762098        -0.701566         3.677097
 H        -4.177355         0.350668         3.471652
 H        -4.424440        -1.440192         3.377176
