19
Iteration:  3551charge 0 multiplicity 1
 C         1.819741        -0.094456         0.378360
 C         0.490366        -0.313034        -0.127696
 C        -0.664557        -0.678430        -0.418365
 C        -2.171359        -0.633113        -0.279942
 C        -2.781431         0.477174        -1.098724
 O        -2.418812        -0.193902         1.140677
 C        -3.517872        -0.857735         1.622356
 C        -3.649662        -0.523458         3.078596
 O        -4.116299        -1.599590         0.921816
 H         2.603605        -0.481954        -0.353665
 H         2.019870         1.046338         0.322892
 H         2.028240        -0.243101         1.447894
 H        -2.782587        -1.565367        -0.406185
 H        -3.812336         0.556641        -0.993285
 H        -2.460550         1.573969        -0.931997
 H        -2.422594         0.229206        -2.089434
 H        -4.427857         0.191406         3.367891
 H        -3.847572        -1.433621         3.696103
 H        -2.745276        -0.038524         3.391436
