19
Iteration:  3341
 C         1.739588        -0.986577         0.050765
 C         0.389180        -0.459640        -0.103011
 C        -0.786511        -0.182658        -0.057335
 C        -2.290298        -0.094422        -0.296970
 C        -2.706325         1.138388        -1.181004
 O        -3.037597         0.049895         0.880779
 C        -3.226291        -0.976805         1.801996
 C        -4.497603        -0.678950         2.628870
 O        -2.605385        -1.988488         1.675054
 H         1.545117        -2.087559        -0.081326
 H         2.531092        -0.713645        -0.699927
 H         2.178979        -0.559203         0.901777
 H        -2.473032        -1.081575        -0.793903
 H        -3.726916         0.946155        -1.152740
 H        -2.413026         2.158963        -1.067861
 H        -2.485015         0.823164        -2.216440
 H        -4.996015         0.167863         2.127159
 H        -5.057503        -1.618813         2.617107
 H        -4.345805        -0.453688         3.695986
