19
Iteration:  2561
 C         1.842218        -0.173250         0.138096
 C         0.381976        -0.349767         0.132350
 C        -0.795216        -0.291921        -0.139561
 C        -2.271324        -0.187641        -0.256501
 C        -2.598869         0.809899        -1.249044
 O        -2.688436         0.002534         1.178649
 C        -3.413839        -1.090433         1.635425
 C        -3.893624        -0.878197         2.994834
 O        -3.621696        -2.104783         0.963628
 H         2.324636        -0.536073        -0.743369
 H         2.098340         0.955741         0.142082
 H         2.241531        -0.715125         1.134996
 H        -2.650356        -1.129592        -0.628325
 H        -1.867262         1.644815        -1.423938
 H        -2.663066         0.386623        -2.317182
 H        -3.623276         1.224417        -1.153607
 H        -3.229965        -1.350545         3.740102
 H        -3.963530         0.202516         3.243752
 H        -4.821436        -1.448929         2.986979
