19
Iteration:   410charge 0 multiplicity 1
 C         1.641289        -0.048438         0.226710
 C         0.151739        -0.003720         0.079865
 C        -1.001448         0.251733        -0.226836
 C        -2.391258         0.063188        -0.375612
 C        -3.105930         1.098974        -1.205034
 O        -3.040822        -0.321592         0.940711
 C        -3.058599        -1.425874         1.630509
 C        -4.001395        -1.320068         2.821228
 O        -2.323875        -2.355951         1.427143
 H         1.845488         0.814993         0.982954
 H         1.746407        -0.998756         0.796998
 H         2.156902         0.053990        -0.758689
 H        -2.542088        -0.899553        -1.070838
 H        -2.606541         2.076222        -0.810066
 H        -2.723427         1.076506        -2.195704
 H        -4.181528         0.792443        -1.266708
 H        -3.426156        -1.152795         3.757092
 H        -4.646027        -0.423733         2.663923
 H        -4.666860        -2.233660         2.933532
