19
Iteration:    60charge 0 multiplicity 1
 C         1.784667         0.577108         0.269671
 C         0.384294         0.441875        -0.065613
 C        -0.757169         0.072447        -0.162399
 C        -2.134516        -0.324159        -0.215426
 C        -3.120872         0.637908        -0.891788
 O        -2.638188        -0.268752         1.202048
 C        -3.309096        -1.446304         1.471397
 C        -3.772439        -1.308846         2.857811
 O        -3.456899        -2.459560         0.807900
 H         2.066950        -0.089336         1.055034
 H         2.428063         0.370264        -0.624481
 H         2.105501         1.672437         0.731364
 H        -2.288331        -1.382139        -0.473542
 H        -3.247303         1.593891        -0.310644
 H        -2.737624         1.145784        -1.878560
 H        -4.100173         0.108479        -1.168539
 H        -4.663936        -1.947890         3.021281
 H        -3.034958        -1.716135         3.561634
 H        -3.993410        -0.251751         3.072496
