19
Iteration:  2286
 C         1.583377        -0.781550         0.311715
 C         0.224798        -0.339866        -0.040198
 C        -0.962397        -0.075375         0.016369
 C        -2.320311         0.044482        -0.480717
 C        -2.703228         1.328349        -1.030079
 O        -3.418709        -0.199182         0.608959
 C        -3.228387        -1.214140         1.581276
 C        -3.868782        -0.829537         2.878689
 O        -2.460278        -2.131494         1.508559
 H         1.605908        -0.905027         1.389927
 H         1.866344        -1.743100        -0.232026
 H         2.394832         0.010531        -0.007271
 H        -2.458075        -0.690035        -1.264951
 H        -2.616261         2.237816        -0.378718
 H        -1.998859         1.576466        -1.795094
 H        -3.670201         1.332280        -1.579014
 H        -4.098177         0.210623         2.854698
 H        -4.728106        -1.464354         3.100905
 H        -3.024612        -1.204861         3.507011
