19
Iteration:   248
 C         1.583566         0.124876         0.463838
 C         0.190108         0.045163        -0.105747
 C        -1.020943        -0.122546        -0.151092
 C        -2.497374        -0.150044        -0.500238
 C        -3.043473         1.158663        -0.919194
 O        -3.259746        -0.293822         0.709376
 C        -3.022851        -1.399673         1.563434
 C        -3.791520        -1.211849         2.896625
 O        -2.285131        -2.319486         1.279164
 H         2.396622         0.149621        -0.144145
 H         1.696867         0.992276         1.162652
 H         1.788008        -0.920980         1.080135
 H        -2.629971        -0.985845        -1.189051
 H        -2.731774         2.067826        -0.213725
 H        -2.692251         1.424630        -1.961809
 H        -4.203076         0.914474        -1.068131
 H        -4.283485        -2.149066         3.228072
 H        -3.020735        -1.049325         3.700755
 H        -4.447663        -0.317497         2.922086
