19
Iteration:  3540charge 0 multiplicity 1
 C         1.793486        -0.040204         0.366237
 C         0.463107        -0.373757        -0.189265
 C        -0.704910        -0.722237        -0.306711
 C        -2.131985        -0.540104        -0.298297
 C        -2.720397         0.573729        -1.154663
 O        -2.404373        -0.170661         1.106698
 C        -3.497055        -0.835349         1.631181
 C        -3.671381        -0.492918         3.061611
 O        -4.133604        -1.738772         1.002894
 H         2.576641        -0.690006        -0.180445
 H         2.044975         1.077810         0.286272
 H         1.839513        -0.522904         1.363829
 H        -2.503310        -1.569765        -0.487403
 H        -3.733825         0.442767        -0.965663
 H        -2.267851         1.528791        -0.676699
 H        -2.718804         0.513441        -2.236890
 H        -4.537361         0.164668         3.169365
 H        -3.837993        -1.473450         3.574490
 H        -2.730746        -0.086413         3.387322
