19
Iteration:   830
 C         1.715284         1.102129        -0.216052
 C         0.587897         0.163780        -0.128752
 C        -0.495115        -0.322541         0.107947
 C        -1.913563        -0.731701        -0.007327
 C        -2.690827         0.299371        -0.869495
 O        -2.406123        -0.575468         1.369687
 C        -3.624221        -1.259617         1.542547
 C        -3.925245        -1.198065         2.958360
 O        -4.171244        -1.747290         0.616147
 H         1.373766         1.998991        -0.600314
 H         2.026270         1.191778         0.919937
 H         2.533989         0.649887        -0.792343
 H        -2.070099        -1.822790        -0.367356
 H        -2.575433         1.281848        -0.311748
 H        -2.269290         0.476134        -1.830341
 H        -3.719454        -0.072343        -1.120512
 H        -3.091345        -0.836260         3.466955
 H        -4.708912        -0.532204         3.235830
 H        -4.212775        -2.158951         3.296189
