19
Iteration:  3430charge 0 multiplicity 1
 C         1.886782        -0.574581        -0.094477
 C         0.437130        -0.487982         0.060137
 C        -0.744558        -0.283629         0.038423
 C        -2.173422        -0.261046        -0.149843
 C        -2.530479         0.822458        -1.244955
 O        -3.002724         0.095561         0.972857
 C        -3.566836        -0.998859         1.596712
 C        -4.092119        -0.453142         2.951761
 O        -3.301966        -2.153301         1.276758
 H         2.344124        -1.529947        -0.556802
 H         2.393231         0.397630        -0.525245
 H         2.249480        -0.466602         0.960310
 H        -2.635183        -1.153783        -0.614777
 H        -3.481581         0.817778        -1.604974
 H        -2.316260         1.917152        -1.011685
 H        -1.772924         0.530970        -2.019310
 H        -4.938692         0.217844         2.858022
 H        -4.396228        -1.368196         3.450235
 H        -3.271754         0.063819         3.507774
