19
Iteration:  1434
 C         1.779647        -0.202448         0.085020
 C         0.345729        -0.119118        -0.040638
 C        -0.846731         0.075396         0.051164
 C        -2.311936        -0.023469        -0.201722
 C        -2.795511         1.030470        -1.332614
 O        -3.109837        -0.132891         1.026281
 C        -3.253096        -1.293929         1.653323
 C        -3.943456        -1.043620         3.003803
 O        -2.932388        -2.427932         1.152192
 H         2.175925         0.859914         0.024882
 H         1.924487        -0.369818         1.239302
 H         2.347371        -0.831727        -0.450468
 H        -2.445015        -0.938942        -0.727103
 H        -2.415451         2.093162        -1.261098
 H        -2.399648         0.736105        -2.213673
 H        -3.924011         0.929678        -1.439670
 H        -3.476970        -1.760787         3.716505
 H        -3.869441         0.075248         3.096191
 H        -5.027291        -1.245925         2.866116
