19
Iteration:  2737
 C         2.052418         0.081357        -0.197140
 C         0.647841        -0.238118        -0.171052
 C        -0.547048        -0.300235         0.051607
 C        -1.977076        -0.505206        -0.066400
 C        -2.559097         0.372207        -1.069638
 O        -2.459056        -0.289664         1.409713
 C        -3.651074        -0.943988         1.645822
 C        -4.169895        -0.868693         3.061453
 O        -4.261690        -1.560665         0.738494
 H         2.111583         0.944023        -0.802671
 H         2.380781         0.223605         0.915215
 H         2.774931        -0.663203        -0.788290
 H        -2.144261        -1.597117        -0.151314
 H        -3.606071         0.433149        -1.038843
 H        -2.041772         1.376185        -1.139138
 H        -2.450765        -0.057048        -2.131068
 H        -5.037966        -0.216297         2.982463
 H        -4.624984        -1.848968         3.233388
 H        -3.489257        -0.483171         3.818925
