19
Iteration:  1875
 C         2.034476         0.353405         0.078642
 C         0.651244        -0.057072        -0.109766
 C        -0.579284        -0.121422        -0.006252
 C        -1.953727        -0.468564        -0.274668
 C        -2.995649         0.436013        -0.991515
 O        -2.383881        -0.594784         1.240992
 C        -3.616598        -1.138606         1.563670
 C        -3.911837        -0.599827         2.930735
 O        -4.202336        -2.003848         0.871875
 H         2.645257         0.142928        -0.812197
 H         1.978260         1.481219         0.149791
 H         2.622521        -0.092957         0.864588
 H        -2.024547        -1.475400        -0.674133
 H        -2.977836         1.404683        -0.436640
 H        -2.652419         0.532627        -2.036984
 H        -3.953321        -0.179794        -0.863368
 H        -3.242710         0.246535         3.002014
 H        -4.948405        -0.330445         3.268736
 H        -3.714737        -1.351675         3.758144
