19
Iteration:  3005charge 0 multiplicity 1
 C         1.935467        -0.276384         0.181536
 C         0.517403        -0.230533        -0.025830
 C        -0.692997        -0.360821        -0.078309
 C        -2.089780        -0.316766        -0.282988
 C        -2.499654         0.723859        -1.256038
 O        -2.737643        -0.033089         1.046316
 C        -3.563970        -1.071860         1.669921
 C        -3.767202        -0.710880         3.067215
 O        -4.136779        -1.998600         1.025968
 H         1.952899         0.056496         1.185831
 H         2.461557        -1.244666         0.172769
 H         2.535463         0.470145        -0.480525
 H        -2.297569        -1.339170        -0.747904
 H        -3.475856         0.568244        -1.588020
 H        -2.473704         1.772022        -0.786407
 H        -1.740806         0.599000        -2.113348
 H        -2.732518        -0.695008         3.523494
 H        -4.071603         0.377797         3.073765
 H        -4.361028        -1.473015         3.615643
