19
Iteration:  3688charge 0 multiplicity 1
 C         2.094575         0.211992        -0.312931
 C         0.681201        -0.267927        -0.022840
 C        -0.506708        -0.501611        -0.021743
 C        -1.954322        -0.728480        -0.010199
 C        -2.629259        -0.016771        -1.205970
 O        -2.383248        -0.559173         1.402762
 C        -3.708440        -0.794842         1.657325
 C        -3.987174        -0.844759         3.152967
 O        -4.542178        -0.845658         0.779051
 H         2.424384        -0.092243        -1.333360
 H         1.987933         1.308177        -0.218034
 H         2.781268        -0.072506         0.547111
 H        -2.231073        -1.674154        -0.359250
 H        -3.534852        -0.349494        -1.552756
 H        -2.716519         1.043166        -1.085418
 H        -1.711523        -0.127036        -1.806404
 H        -5.000948        -0.475812         3.245644
 H        -3.915246        -1.902363         3.515619
 H        -3.271628        -0.186744         3.627061
