19
Iteration:  4008
 C         1.631110        -0.763232         0.307124
 C         0.231969        -0.562857        -0.055047
 C        -0.988906        -0.490831        -0.147118
 C        -2.398195         0.008241        -0.381265
 C        -2.407768         1.333803        -1.030201
 O        -3.067349         0.100170         0.954592
 C        -3.331873        -1.083676         1.596368
 C        -3.370207        -0.774871         3.082944
 O        -3.442863        -2.085293         0.988390
 H         1.931612        -1.675252        -0.323215
 H         2.255174         0.066717        -0.092855
 H         1.830426        -1.000696         1.351865
 H        -2.920230        -0.873579        -0.908674
 H        -3.501442         1.608677        -1.216699
 H        -2.000338         2.145294        -0.458181
 H        -1.930682         1.206332        -1.986610
 H        -2.358092        -0.830922         3.482196
 H        -3.670947         0.271057         3.233168
 H        -3.981955        -1.492053         3.667351
