19
Iteration:  4935
 C         1.768539        -0.902335        -0.242612
 C         0.380095        -0.615991        -0.411892
 C        -0.811812        -0.405040        -0.355768
 C        -2.172310        -0.061816        -0.248580
 C        -2.406492         1.305021        -0.905699
 O        -2.670374        -0.047721         1.223611
 C        -3.423865        -0.962650         1.756921
 C        -4.105359        -0.569415         3.092797
 O        -3.632522        -2.058368         1.311482
 H         2.424375        -0.971858        -1.141385
 H         2.189394        -0.022427         0.264709
 H         2.135379        -1.799502         0.363685
 H        -2.584933        -0.923424        -0.837621
 H        -3.256842         1.381927        -1.558726
 H        -2.423087         2.082022        -0.159292
 H        -1.578047         1.579768        -1.457943
 H        -5.055432        -1.167800         2.941122
 H        -3.547019        -0.772353         4.006165
 H        -4.304558         0.515150         3.122790
