19
Iteration:  3988charge 0 multiplicity 1
 C         1.667202        -0.774819         0.164116
 C         0.281341        -0.399204        -0.091617
 C        -0.922678        -0.428058        -0.102530
 C        -2.289192        -0.092509        -0.344690
 C        -2.441380         1.245646        -1.146374
 O        -2.931350         0.148929         1.014655
 C        -3.378811        -1.039562         1.599428
 C        -3.503860        -0.881430         3.166776
 O        -3.586005        -2.054589         1.005143
 H         2.041660        -1.729377        -0.381886
 H         2.320129         0.137572         0.028390
 H         1.602327        -0.946453         1.260623
 H        -2.797002        -1.038130        -0.664122
 H        -3.472368         1.381942        -1.526330
 H        -2.339729         2.049184        -0.502826
 H        -1.627275         1.341150        -1.846377
 H        -2.661262        -1.350312         3.717916
 H        -3.432261         0.180659         3.482954
 H        -4.421323        -1.426919         3.482302
