19
Iteration:  2858
 C         2.127975         0.217015        -0.266049
 C         0.736287        -0.011553        -0.120251
 C        -0.413020        -0.399255         0.013337
 C        -1.881841        -0.777027         0.006065
 C        -2.613588         0.247775        -0.999326
 O        -2.377400        -0.725065         1.368068
 C        -3.706947        -0.853648         1.588265
 C        -4.254489        -0.786190         3.066493
 O        -4.480395        -1.145689         0.744055
 H         2.424614         1.185858        -0.053899
 H         2.613756        -0.572817         0.404859
 H         2.322320         0.038360        -1.392898
 H        -2.157106        -1.748458        -0.432513
 H        -3.685544        -0.069289        -1.016181
 H        -2.443113         1.234915        -0.584050
 H        -2.274962         0.295678        -2.049686
 H        -4.577073        -1.781425         3.419907
 H        -3.486918        -0.535091         3.781207
 H        -5.051394        -0.086522         2.990946
