19
Iteration:  3263
 C         1.539982        -0.908771         0.252083
 C         0.174366        -0.552359        -0.099163
 C        -1.038255        -0.526794        -0.164093
 C        -2.424424        -0.052687        -0.491571
 C        -2.465983         1.303002        -1.021089
 O        -3.264501        -0.044679         0.674985
 C        -3.143187        -0.987799         1.676465
 C        -4.234422        -0.746028         2.633222
 O        -2.286565        -1.805834         1.801259
 H         1.552984        -1.912947         0.813718
 H         2.334240        -0.875301        -0.506162
 H         1.774482        -0.214903         1.019425
 H        -2.749596        -0.866249        -1.178939
 H        -3.451874         1.668832        -1.352423
 H        -2.298582         1.941070        -0.211920
 H        -1.750979         1.378956        -1.794388
 H        -4.699357         0.241250         2.590899
 H        -5.056389        -1.428842         2.299405
 H        -3.810032        -0.998425         3.598225
