19
Iteration:  2051
 C         1.810990        -0.276150         0.143017
 C         0.445301        -0.007624        -0.110345
 C        -0.793866        -0.106992        -0.093002
 C        -2.218482        -0.159900        -0.271084
 C        -2.649481         0.901598        -1.235880
 O        -2.940245        -0.078407         1.043085
 C        -3.449205        -1.214046         1.629023
 C        -3.964162        -0.823562         2.990842
 O        -3.316824        -2.359200         1.183203
 H         2.609159         0.444125        -0.083971
 H         1.899894        -0.477451         1.220924
 H         2.003306        -1.295452        -0.260384
 H        -2.459067        -1.130364        -0.613938
 H        -2.741110         1.865604        -0.602546
 H        -1.883022         0.949580        -1.953527
 H        -3.564792         0.585249        -1.682513
 H        -4.368660        -1.586655         3.653964
 H        -3.089175        -0.536226         3.553604
 H        -4.566337         0.082920         2.835646
