19
Iteration:  4932
 C         1.782145        -0.899593        -0.244032
 C         0.395701        -0.619689        -0.409938
 C        -0.809841        -0.400627        -0.367076
 C        -2.159762        -0.052022        -0.226799
 C        -2.394487         1.303762        -0.893858
 O        -2.678284        -0.040262         1.204557
 C        -3.421050        -0.992057         1.750494
 C        -4.096740        -0.572790         3.068682
 O        -3.675754        -2.048473         1.344461
 H         2.372991        -0.963296        -1.163482
 H         2.096916         0.044507         0.246176
 H         2.149167        -1.748686         0.228002
 H        -2.509808        -0.961826        -0.778679
 H        -3.230701         1.299871        -1.564751
 H        -2.418191         2.038244        -0.110916
 H        -1.530148         1.665035        -1.559382
 H        -4.984147        -1.211893         3.010955
 H        -3.592686        -0.747389         4.001867
 H        -4.342784         0.459240         3.104368
