19
Iteration:  2645charge 0 multiplicity 1
 C         1.946741        -0.171422         0.171853
 C         0.551912        -0.076120        -0.075108
 C        -0.644049        -0.134420        -0.250919
 C        -2.049075        -0.406349        -0.210691
 C        -2.844279         0.804616        -1.058634
 O        -2.366065        -0.469472         1.193526
 C        -3.566928        -1.128883         1.602427
 C        -4.033623        -0.548543         2.944816
 O        -4.001203        -2.076452         0.986916
 H         2.676681         0.023242        -0.756672
 H         2.246219         0.515642         0.973573
 H         2.278487        -1.178209         0.481025
 H        -2.249657        -1.338522        -0.789847
 H        -2.978777         1.761325        -0.359843
 H        -2.100502         0.959501        -1.795950
 H        -3.796719         0.655480        -1.527509
 H        -3.527167         0.432244         3.176083
 H        -5.093569        -0.350334         2.708718
 H        -4.005751        -1.164160         3.837304
