19
Iteration:  2231
 C         1.572207        -0.680285         0.204684
 C         0.127055        -0.389503         0.285490
 C        -1.043435        -0.210307        -0.050756
 C        -2.427998        -0.152347        -0.401224
 C        -2.693498         1.358706        -1.014283
 O        -3.260330        -0.091912         0.697249
 C        -3.152104        -1.242855         1.556783
 C        -3.902691        -0.737050         2.778113
 O        -2.417476        -2.150054         1.376851
 H         2.061057        -0.301134         1.058991
 H         1.756027        -1.770364         0.016299
 H         1.918315         0.029374        -0.690691
 H        -2.600440        -1.018450        -1.105883
 H        -2.512801         2.012127        -0.188886
 H        -1.904815         1.622696        -1.698307
 H        -3.683747         1.433009        -1.559699
 H        -3.625212         0.283004         2.760149
 H        -4.943149        -0.926013         2.535903
 H        -3.460078        -1.195607         3.705982
