19
Iteration:  3061charge 0 multiplicity 1
 C         1.772146        -0.623795         0.302697
 C         0.430374        -0.354274         0.163077
 C        -0.741592        -0.221066        -0.023970
 C        -2.205205        -0.149657        -0.260213
 C        -2.824254         0.756123        -1.284782
 O        -2.849207         0.146635         1.001898
 C        -3.364788        -0.984204         1.601681
 C        -3.805252        -0.683488         2.957048
 O        -3.437175        -2.082214         0.991767
 H         2.064624        -0.741322         1.320894
 H         2.089370        -1.555547        -0.222503
 H         2.374976         0.234026        -0.315792
 H        -2.332881        -1.183113        -0.703070
 H        -3.911341         0.717299        -1.267769
 H        -2.459084         1.816616        -1.322976
 H        -2.580423         0.287033        -2.311846
 H        -2.975029        -0.217691         3.604545
 H        -4.675318         0.005151         2.777123
 H        -4.246702        -1.593907         3.399377
