19
Iteration:  1342
 C         1.465238        -0.339618         0.433730
 C         0.159558        -0.351876        -0.183059
 C        -0.984531         0.054698        -0.257043
 C        -2.457904        -0.051846        -0.347972
 C        -2.929268         1.172497        -1.173941
 O        -3.115408         0.002160         0.915428
 C        -2.978896        -1.209468         1.694036
 C        -3.931720        -1.180263         2.812160
 O        -2.368142        -2.268757         1.364731
 H         2.452500         0.041795        -0.093188
 H         1.445337         0.215845         1.273495
 H         1.699606        -1.371663         0.707755
 H        -2.726423        -1.033142        -0.766576
 H        -2.929483         2.127987        -0.708248
 H        -2.126443         1.404401        -2.052949
 H        -3.839039         0.979840        -1.684091
 H        -4.682630        -1.904576         2.569042
 H        -3.442829        -1.468602         3.731278
 H        -4.295719        -0.193051         3.125269
