19
Iteration:   304charge 0 multiplicity 1
 C         1.449113        -0.137864         0.328345
 C         0.046626        -0.037855         0.194132
 C        -1.096131         0.081849        -0.175432
 C        -2.501156        -0.048804        -0.449093
 C        -2.984294         1.224140        -1.226240
 O        -3.245394        -0.246799         0.822826
 C        -2.951135        -1.398977         1.610528
 C        -3.828691        -1.397337         2.836807
 O        -2.060660        -2.178865         1.387093
 H         1.864877         0.625811        -0.204809
 H         1.678511         0.220350         1.381574
 H         2.154731        -1.083162         0.147365
 H        -2.670060        -0.966925        -1.039694
 H        -2.763302         2.260036        -0.776268
 H        -2.685186         1.163701        -2.276791
 H        -4.164122         1.126353        -1.307208
 H        -3.820320        -2.357730         3.325218
 H        -3.505431        -0.745750         3.651823
 H        -4.872010        -1.195210         2.633758
