19
Iteration:   459
 C         1.709812         0.206751         0.236779
 C         0.271849         0.181921        -0.082397
 C        -0.882154        -0.199356        -0.162174
 C        -2.370650        -0.228327        -0.336889
 C        -3.008640         1.041262        -0.947314
 O        -3.090397        -0.225982         0.888193
 C        -3.141125        -1.362761         1.598949
 C        -4.002311        -1.205838         2.891165
 O        -2.554783        -2.363594         1.226483
 H         1.844871         0.499108         1.225724
 H         2.077966        -0.805100         0.103563
 H         2.137756         0.943065        -0.513930
 H        -2.695147        -1.068830        -0.828017
 H        -2.629326         1.945783        -0.517212
 H        -2.753867         1.012933        -2.059591
 H        -4.042840         0.775462        -0.932493
 H        -3.514334        -0.495067         3.573719
 H        -4.967601        -0.748517         2.723754
 H        -4.128997        -2.179093         3.329053
