19
Iteration:  1067charge 0 multiplicity 1
 C         1.794013         0.286680         0.098106
 C         0.382876         0.128739         0.229503
 C        -0.762712         0.063334        -0.176072
 C        -2.193452        -0.290734        -0.295950
 C        -2.837792         0.879814        -1.169079
 O        -2.773329        -0.251261         1.080648
 C        -3.374556        -1.368814         1.558828
 C        -3.811653        -1.109984         2.968006
 O        -3.463453        -2.484870         1.068470
 H         2.525518        -0.107121         0.955492
 H         2.154990        -0.003349        -0.798458
 H         2.069102         1.316477         0.104872
 H        -2.395486        -1.253282        -0.713381
 H        -2.148632         1.753867        -1.200742
 H        -3.093039         0.537354        -2.074430
 H        -3.866894         1.098659        -0.810301
 H        -4.266111        -2.028342         3.409910
 H        -3.036391        -0.601377         3.584964
 H        -4.611128        -0.358364         2.918517
