19
Iteration:  3780charge 0 multiplicity 1
 C         1.903478         0.207997        -0.568290
 C         0.722712        -0.310910        -0.101500
 C        -0.406714        -0.647355         0.202771
 C        -1.942088        -0.783911        -0.023174
 C        -2.286552         0.489665        -0.871376
 O        -2.429431        -0.722465         1.385790
 C        -3.778872        -0.857192         1.645518
 C        -4.218258        -0.554489         3.016320
 O        -4.470196        -1.236386         0.783294
 H         1.977049        -0.205538        -1.577851
 H         1.697431         1.257870        -0.691661
 H         2.853420         0.097264        -0.144596
 H        -2.168536        -1.799152        -0.380897
 H        -3.361744         0.855756        -1.151057
 H        -1.837984         1.393749        -0.396834
 H        -1.714449         0.231191        -1.761572
 H        -5.338036        -0.566753         2.981742
 H        -3.916564        -1.254090         3.811371
 H        -3.833956         0.461221         3.335053
