19
Iteration:  1773
 C         1.916421         0.702057        -0.210549
 C         0.668555        -0.108306        -0.166460
 C        -0.502895        -0.352172         0.075106
 C        -1.916274        -0.664905         0.003342
 C        -2.606225         0.232770        -0.978367
 O        -2.446673        -0.491078         1.354712
 C        -3.725356        -1.054130         1.550625
 C        -3.964317        -0.965371         3.049510
 O        -4.350130        -1.570222         0.696920
 H         2.875246         0.007390        -0.420517
 H         1.826037         1.411329        -1.101315
 H         2.017074         1.270046         0.621596
 H        -2.189150        -1.676916        -0.306785
 H        -2.587758         1.268867        -0.593053
 H        -2.029226        -0.044954        -1.989925
 H        -3.642064         0.017131        -1.080193
 H        -3.937076        -2.011794         3.456915
 H        -3.215648        -0.368539         3.548924
 H        -4.917830        -0.707830         3.479073
