19
Iteration:  3034charge 0 multiplicity 1
 C         1.978709        -0.479987         0.228509
 C         0.531571        -0.352952         0.155221
 C        -0.670804        -0.176087        -0.077582
 C        -2.189050        -0.259227        -0.342574
 C        -2.728285         0.767247        -1.362467
 O        -2.859019         0.025189         1.011276
 C        -3.545504        -0.997287         1.643980
 C        -3.800393        -0.754495         3.055436
 O        -3.765335        -1.999229         1.073624
 H         2.176392        -0.378506         1.370353
 H         2.549169        -1.397925        -0.055458
 H         2.410699         0.311093        -0.422765
 H        -2.260243        -1.254786        -0.732671
 H        -3.831662         0.888652        -1.521455
 H        -2.359196         1.779467        -1.147035
 H        -2.256306         0.441679        -2.260552
 H        -2.867192        -0.531154         3.494280
 H        -4.428837         0.130247         3.158685
 H        -4.171231        -1.699983         3.473566
