19
Iteration:  2499charge 0 multiplicity 1
 C         1.895051        -0.353371         0.124026
 C         0.380735        -0.255516         0.019661
 C        -0.842342        -0.195714         0.053949
 C        -2.244154        -0.117466        -0.277038
 C        -2.492742         1.007770        -1.136792
 O        -3.171230        -0.018655         0.865354
 C        -3.420986        -1.152479         1.534642
 C        -3.707654        -0.816180         3.049319
 O        -3.445238        -2.298091         1.120028
 H         2.233530        -1.359363        -0.353935
 H         2.355368         0.505835        -0.257277
 H         2.205934        -0.412429         1.095501
 H        -2.587009        -1.124664        -0.597975
 H        -2.791444         1.778381        -0.536014
 H        -1.618817         1.156944        -1.795309
 H        -3.404563         0.645177        -1.657233
 H        -3.875633        -1.679002         3.675864
 H        -3.027605        -0.103382         3.548427
 H        -4.553988        -0.085751         3.013280
