19
Iteration:  2536
 C         1.851153        -0.234331         0.146345
 C         0.420984        -0.266049         0.067209
 C        -0.794535        -0.344418         0.002196
 C        -2.248119        -0.212914        -0.265389
 C        -2.513378         0.880596        -1.309447
 O        -2.943879         0.099832         1.018366
 C        -3.439953        -1.108818         1.636674
 C        -3.825005        -0.922642         3.097335
 O        -3.553065        -2.138270         1.026471
 H         2.161631        -0.785199        -0.721157
 H         2.237017         0.725297        -0.236689
 H         2.325605        -0.634531         1.139908
 H        -2.604093        -1.178750        -0.667739
 H        -2.094082         1.914781        -0.987562
 H        -2.238813         0.743782        -2.315245
 H        -3.586367         1.018951        -1.376616
 H        -3.424003        -1.797466         3.648920
 H        -3.477498        -0.020666         3.567637
 H        -4.869560        -1.202005         3.054862
