19
Iteration:  3009charge 0 multiplicity 1
 C         1.964047        -0.285341         0.189263
 C         0.496305        -0.256755        -0.007743
 C        -0.711687        -0.320368        -0.099642
 C        -2.101385        -0.304932        -0.275956
 C        -2.496452         0.722915        -1.269472
 O        -2.748732        -0.006926         1.038405
 C        -3.567440        -1.089442         1.636802
 C        -3.772880        -0.701995         3.091039
 O        -4.094811        -2.008831         1.042758
 H         2.019161        -0.106890         1.279476
 H         2.490012        -1.216701         0.144348
 H         2.503736         0.280194        -0.454937
 H        -2.188857        -1.258856        -0.778561
 H        -3.581403         0.605448        -1.581054
 H        -2.497144         1.711659        -0.910292
 H        -1.862338         0.645899        -2.145546
 H        -2.759843        -0.711816         3.542805
 H        -4.165924         0.294847         3.180941
 H        -4.308068        -1.493810         3.570837
