19
Iteration:   456
 C         1.712745         0.189431         0.255852
 C         0.281584         0.185801        -0.098424
 C        -0.889645        -0.182464        -0.159476
 C        -2.380958        -0.206053        -0.356001
 C        -3.025704         1.037436        -0.911111
 O        -3.099372        -0.231518         0.874149
 C        -3.139808        -1.348568         1.616963
 C        -3.986075        -1.209989         2.860387
 O        -2.551342        -2.365503         1.250999
 H         1.906148         0.538817         1.222911
 H         2.087507        -0.875289         0.115890
 H         2.233067         0.918023        -0.546712
 H        -2.687624        -1.117105        -0.926554
 H        -2.618196         2.016464        -0.679590
 H        -2.754124         0.935841        -1.984946
 H        -4.100668         0.754221        -0.959722
 H        -3.507503        -0.628378         3.616373
 H        -4.941036        -0.778879         2.649123
 H        -4.145906        -2.146405         3.311550
