19
Iteration:  4010
 C         1.638460        -0.774208         0.311024
 C         0.224368        -0.571846        -0.044843
 C        -1.001333        -0.488224        -0.154978
 C        -2.404676         0.011984        -0.382481
 C        -2.420798         1.341370        -1.020675
 O        -3.070330         0.095338         0.944758
 C        -3.333185        -1.081270         1.581471
 C        -3.362707        -0.771663         3.072160
 O        -3.431877        -2.089605         0.997469
 H         1.959117        -1.688716        -0.324454
 H         2.222719         0.111083        -0.094587
 H         1.834908        -0.974001         1.390928
 H        -2.913243        -0.857508        -0.821930
 H        -3.465856         1.674839        -1.160731
 H        -1.966523         2.118754        -0.500345
 H        -1.886038         1.195662        -1.966756
 H        -2.332803        -0.774541         3.491463
 H        -3.670328         0.286215         3.234672
 H        -3.945669        -1.515880         3.644664
