19
Iteration:  2625
 C         1.977220        -0.161319         0.223934
 C         0.604277        -0.141772        -0.129135
 C        -0.602448        -0.201600        -0.288448
 C        -2.082067        -0.324821        -0.298270
 C        -2.823796         0.793512        -0.980664
 O        -2.520094        -0.295861         1.132297
 C        -3.550785        -1.152409         1.631101
 C        -4.014556        -0.593978         2.919786
 O        -3.941968        -2.130171         1.013969
 H         2.721707        -0.045369        -0.521205
 H         2.219251         0.683358         0.943730
 H         2.036381        -1.164974         0.784046
 H        -2.464103        -1.294369        -0.670785
 H        -2.511656         1.705305        -0.397237
 H        -2.623073         0.661800        -2.024620
 H        -3.874691         0.699585        -0.790347
 H        -3.311190         0.068346         3.408744
 H        -4.896252        -0.003482         2.738848
 H        -4.095859        -1.452096         3.559665
