19
Iteration:  2038charge 0 multiplicity 1
 C         1.824463        -0.288572         0.123432
 C         0.382693         0.089473        -0.044601
 C        -0.841656        -0.105565        -0.040427
 C        -2.227711        -0.361414        -0.277372
 C        -2.587942         0.832093        -1.213367
 O        -2.911918        -0.028671         1.087153
 C        -3.430484        -1.242201         1.635706
 C        -3.904726        -0.805186         3.022229
 O        -3.374207        -2.308456         1.084642
 H         2.439868         0.516424        -0.495080
 H         2.078696        -0.224305         1.226262
 H         2.116994        -1.154658        -0.344114
 H        -2.498527        -1.299269        -0.685069
 H        -2.555278         1.884185        -0.765986
 H        -1.912776         0.926006        -2.009266
 H        -3.610545         0.864073        -1.661177
 H        -4.752080        -1.417796         3.223354
 H        -3.043691        -0.684506         3.664769
 H        -4.360948         0.216232         2.955046
