19
Iteration:  1815charge 0 multiplicity 1
 C         1.972577         0.481482        -0.050887
 C         0.525577         0.293819        -0.141217
 C        -0.488649        -0.432282        -0.190843
 C        -1.930690        -0.707388        -0.164956
 C        -2.771176         0.288601        -0.928406
 O        -2.286872        -0.652082         1.306556
 C        -3.569230        -1.044761         1.650006
 C        -4.166300        -0.830754         3.052240
 O        -4.217506        -1.617125         0.796336
 H         2.533986        -0.329569        -0.689691
 H         2.177059         1.436107        -0.494024
 H         2.297186         0.642957         0.990628
 H        -2.080098        -1.799273        -0.354192
 H        -2.690120         1.366434        -0.600750
 H        -2.481805         0.322195        -1.988170
 H        -3.791053         0.076415        -1.023237
 H        -3.511376        -1.206561         3.849861
 H        -4.258497         0.232468         3.157014
 H        -5.088833        -1.359829         3.112689
