19
Iteration:  2322charge 0 multiplicity 1
 C         1.594180        -0.713201         0.388603
 C         0.182534        -0.420999         0.046102
 C        -1.006548        -0.227020        -0.211349
 C        -2.417071        -0.020545        -0.491216
 C        -2.800299         1.294554        -1.051171
 O        -3.160298         0.019340         0.856607
 C        -3.085476        -1.129133         1.630245
 C        -3.975760        -0.908489         2.804930
 O        -2.464946        -2.127445         1.311777
 H         1.751532        -1.197594         1.479773
 H         2.090317        -1.454474        -0.298614
 H         2.150986         0.178156         0.409379
 H        -2.795189        -0.930070        -1.091437
 H        -2.298094         2.123550        -0.452048
 H        -2.294906         1.203761        -2.007859
 H        -3.848365         1.310481        -1.204823
 H        -4.620326        -0.002625         2.696842
 H        -4.635578        -1.756658         2.986795
 H        -3.472804        -0.582370         3.710844
