19
Iteration:   617charge 0 multiplicity 1
 C         1.912340         0.498100         0.168564
 C         0.455301         0.275140         0.028847
 C        -0.753817         0.183381        -0.222654
 C        -2.132828        -0.276547        -0.254533
 C        -3.047391         0.587316        -1.089564
 O        -2.700007        -0.233068         1.096976
 C        -3.330220        -1.421861         1.570123
 C        -3.798442        -1.234082         3.014784
 O        -3.616639        -2.458537         1.015073
 H         2.605880        -0.472391         0.171335
 H         2.265157         1.161066        -0.609059
 H         2.203760         0.984366         1.015480
 H        -2.082022        -1.369057        -0.479689
 H        -3.055199         1.586505        -0.658617
 H        -2.564286         0.786552        -2.050843
 H        -4.054934         0.117097        -1.166459
 H        -4.804288        -0.694742         2.787659
 H        -3.957544        -2.326230         3.368075
 H        -3.246459        -0.392494         3.560474
