19
Iteration:  3996
 C         1.623598        -0.749306         0.194342
 C         0.260385        -0.461351        -0.077189
 C        -0.955650        -0.451317        -0.110886
 C        -2.278365        -0.130886        -0.326660
 C        -2.419131         1.290915        -1.130865
 O        -2.996825         0.163564         1.006135
 C        -3.343097        -1.058355         1.631569
 C        -3.450954        -0.835483         3.168435
 O        -3.538086        -2.087267         0.964368
 H         1.985923        -1.714298        -0.283630
 H         2.396310         0.010153         0.085633
 H         1.612083        -0.961880         1.264828
 H        -2.917554        -0.647087        -1.121229
 H        -3.513212         1.309205        -1.437464
 H        -2.184563         2.127044        -0.413697
 H        -1.783733         1.427847        -1.989230
 H        -2.505865        -1.187601         3.543402
 H        -3.584563         0.231573         3.351844
 H        -4.301181        -1.401221         3.597716
