19
Iteration:  3986
 C         1.672462        -0.773006         0.166122
 C         0.299256        -0.393501        -0.096817
 C        -0.916458        -0.420449        -0.103058
 C        -2.308136        -0.072062        -0.349076
 C        -2.443745         1.229006        -1.142899
 O        -2.916877         0.137663         1.015544
 C        -3.380829        -1.013702         1.610631
 C        -3.510809        -0.891340         3.157625
 O        -3.598000        -2.057786         1.008902
 H         2.047823        -1.702688        -0.403198
 H         2.310612         0.114466        -0.009674
 H         1.670137        -0.976644         1.247155
 H        -2.763877        -1.089808        -0.582041
 H        -3.462930         1.378455        -1.606629
 H        -2.353331         2.053459        -0.456286
 H        -1.650280         1.289999        -1.845323
 H        -2.715453        -1.399169         3.699565
 H        -3.450714         0.148584         3.492679
 H        -4.447928        -1.403405         3.471377
