19
Iteration:     8charge 0 multiplicity 1
 C         1.847609         0.876875         0.028232
 C         0.499212         0.390968        -0.015065
 C        -0.672377         0.064342        -0.078806
 C        -2.008062        -0.333836        -0.089863
 C        -2.958074         0.525329        -0.947742
 O        -2.510626        -0.479807         1.262484
 C        -3.437271        -1.494034         1.572996
 C        -3.885263        -1.458083         2.896028
 O        -3.855215        -2.226668         0.711479
 H         2.237238         1.084547         1.131017
 H         2.645089         0.262582        -0.375828
 H         1.991055         1.808737        -0.425695
 H        -2.050740        -1.392356        -0.459296
 H        -3.219148         1.532414        -0.470161
 H        -2.651430         0.795284        -1.909152
 H        -4.039436         0.278949        -1.028009
 H        -4.644134        -2.269368         3.046456
 H        -2.979594        -1.561317         3.550723
 H        -4.161104        -0.447494         3.280229
