19
Iteration:  2873
 C         2.117745         0.181053        -0.192965
 C         0.635858         0.029532        -0.185465
 C        -0.452683        -0.510902        -0.089383
 C        -1.874434        -0.750414        -0.079247
 C        -2.636651         0.240141        -0.857579
 O        -2.326823        -0.666812         1.448982
 C        -3.716610        -0.876514         1.594417
 C        -4.187181        -0.748531         3.017733
 O        -4.478784        -1.165548         0.658285
 H         2.410230         1.358782         0.218322
 H         2.611887        -0.619066         0.411909
 H         2.614191         0.208471        -1.194249
 H        -1.986915        -1.813890        -0.358872
 H        -3.764857         0.133082        -0.668513
 H        -2.248327         1.261012        -0.635314
 H        -2.432280        -0.107493        -1.853485
 H        -4.393991        -1.795990         3.324972
 H        -3.482154        -0.218273         3.738209
 H        -5.180701        -0.187939         3.127254
