19
Iteration:   889
 C         1.982022         0.892213        -0.240025
 C         0.592301         0.467504        -0.099219
 C        -0.535539         0.031805         0.007762
 C        -1.852875        -0.632050        -0.004782
 C        -2.733439         0.287067        -0.940936
 O        -2.373971        -0.787603         1.352760
 C        -3.599747        -1.343278         1.575692
 C        -4.169528        -1.147349         3.031331
 O        -4.266546        -1.856757         0.722938
 H         2.186214         1.970517        -0.036096
 H         2.570310         0.422917         0.462080
 H         2.484811         0.662268        -1.305768
 H        -1.752690        -1.592788        -0.567202
 H        -2.495898         1.350352        -0.837854
 H        -2.567040        -0.168056        -2.018281
 H        -3.763374         0.259669        -0.592593
 H        -4.032188        -0.135121         3.535391
 H        -5.174535        -1.637967         2.866302
 H        -3.511884        -1.839268         3.647901
