19
Iteration:   254charge 0 multiplicity 1
 C         1.508132         0.094123         0.462279
 C         0.175620         0.065606        -0.081009
 C        -1.021950        -0.154376        -0.132261
 C        -2.384238        -0.145044        -0.511709
 C        -3.081333         1.161351        -0.932664
 O        -3.260749        -0.334039         0.746448
 C        -3.007914        -1.380698         1.583411
 C        -3.784909        -1.201210         2.847287
 O        -2.269981        -2.264707         1.269091
 H         2.447662         0.136837        -0.329672
 H         1.739340         0.793936         1.257492
 H         1.686395        -0.870058         0.856357
 H        -2.561218        -0.984236        -1.225828
 H        -2.763266         1.909968        -0.308465
 H        -2.900629         1.490429        -1.965372
 H        -4.101054         1.070738        -0.892666
 H        -4.273540        -2.080436         3.298625
 H        -3.118895        -1.061765         3.692258
 H        -4.577075        -0.452793         2.852017
