19
Iteration:   861charge 0 multiplicity 1
 C         1.867560         1.014006        -0.254640
 C         0.613713         0.410719        -0.038192
 C        -0.420860        -0.225295        -0.054047
 C        -1.839208        -0.667539        -0.040209
 C        -2.744190         0.280335        -0.919455
 O        -2.355233        -0.714533         1.404664
 C        -3.607802        -1.275296         1.582224
 C        -4.131422        -1.192368         3.006769
 O        -4.279095        -1.792374         0.683877
 H         1.816116         2.137277        -0.409668
 H         2.556926         0.824868         0.702506
 H         2.367305         0.570748        -1.011731
 H        -1.939662        -1.624230        -0.519707
 H        -2.468726         1.307183        -0.676361
 H        -2.668760         0.023983        -1.905696
 H        -3.806745         0.164693        -0.611724
 H        -3.504832        -0.474112         3.445661
 H        -5.183021        -1.126737         3.010012
 H        -3.973674        -2.174551         3.491225
