19
Iteration:  2659charge 0 multiplicity 1
 C         2.023099        -0.136591         0.095284
 C         0.555630        -0.066067        -0.016882
 C        -0.655479        -0.138369        -0.201535
 C        -2.109663        -0.392505        -0.276675
 C        -2.785705         0.719866        -1.021828
 O        -2.373680        -0.482415         1.251023
 C        -3.442440        -1.149354         1.630743
 C        -4.075519        -0.533909         2.837734
 O        -4.094275        -1.990115         0.980936
 H         2.444279         0.188268        -0.797361
 H         2.391257         0.424307         1.032872
 H         2.244837        -1.290195         0.282173
 H        -2.364329        -1.437141        -0.519086
 H        -3.126961         1.434121        -0.271001
 H        -2.206273         1.427413        -1.635343
 H        -3.607877         0.273415        -1.557760
 H        -3.628109         0.405657         2.956051
 H        -5.149915        -0.616174         2.949889
 H        -3.727593        -1.231802         3.605073
