19
Iteration:  2966
 C         1.933468         0.008258         0.085955
 C         0.576115        -0.250544         0.016084
 C        -0.579445        -0.548980        -0.151652
 C        -2.057514        -0.541881        -0.290036
 C        -2.469100         0.657943        -1.071554
 O        -2.587109        -0.299909         1.116039
 C        -3.643017        -0.936372         1.581009
 C        -3.821799        -0.677142         3.087249
 O        -4.326190        -1.777323         0.940291
 H         2.069821         0.693593         1.123179
 H         2.656956        -0.843907         0.214420
 H         2.269823         0.586188        -0.834025
 H        -2.632024        -1.430833        -0.595803
 H        -3.573437         0.697941        -1.394463
 H        -2.303296         1.557518        -0.523795
 H        -1.922949         0.780743        -2.015790
 H        -2.904882        -1.085177         3.556339
 H        -3.755121         0.391647         3.170723
 H        -4.675905        -0.992760         3.627633
