19
Iteration:  4966charge 0 multiplicity 1
 C         1.724842        -1.032883        -0.157141
 C         0.317909        -0.601187        -0.275014
 C        -0.896307        -0.525365        -0.284883
 C        -2.231018        -0.055862        -0.158658
 C        -2.594054         1.273576        -0.874746
 O        -2.697950         0.144884         1.211220
 C        -3.346356        -0.953881         1.670606
 C        -3.984330        -0.572529         2.993001
 O        -3.358296        -2.037452         1.136699
 H         2.159724        -1.211224        -1.143805
 H         2.330701        -0.188113         0.183478
 H         1.860158        -1.743862         0.613489
 H        -2.968063        -0.809561        -0.579094
 H        -3.633238         1.396620        -1.108099
 H        -2.414882         2.096592        -0.196721
 H        -1.903331         1.410836        -1.711756
 H        -5.086084        -0.621907         2.829168
 H        -3.637728        -1.237014         3.754828
 H        -3.785889         0.469243         3.156276
