19
Iteration:    99charge 0 multiplicity 1
 C         1.777215         0.452139         0.305513
 C         0.317552         0.366288         0.132389
 C        -0.860143         0.231982        -0.162999
 C        -2.207374        -0.247171        -0.416251
 C        -3.085395         0.871403        -1.194615
 O        -2.784644        -0.268020         1.154742
 C        -3.266364        -1.532289         1.547306
 C        -3.741840        -1.354008         3.037493
 O        -3.227257        -2.568176         0.909811
 H         2.206317        -0.627975         0.572493
 H         2.213004         0.706912        -0.676149
 H         2.095475         1.136918         0.938396
 H        -2.246298        -1.278515        -0.814922
 H        -2.757853         1.778501        -0.823384
 H        -2.976401         0.775897        -2.252268
 H        -4.066412         0.877273        -0.854606
 H        -4.681420        -1.872998         3.135704
 H        -3.011354        -1.644186         3.818757
 H        -3.877938        -0.283923         3.251815
