19
Iteration:  1559charge 0 multiplicity 1
 C         2.054433         0.355521         0.097154
 C         0.545876         0.154186        -0.121816
 C        -0.615137        -0.308196        -0.304731
 C        -2.157999        -0.375329        -0.311384
 C        -2.761277         0.838693        -0.918339
 O        -2.610037        -0.377032         1.095830
 C        -3.451455        -1.322367         1.639579
 C        -4.009599        -0.914270         2.995284
 O        -3.940527        -2.258390         1.137222
 H         2.150402         0.999496         0.863023
 H         2.651191        -0.527723         0.307828
 H         2.624497         0.883985        -0.843228
 H        -2.533094        -1.377030        -0.761971
 H        -2.510604         1.781632        -0.508842
 H        -2.566888         0.683565        -2.047699
 H        -3.818219         0.864441        -0.884673
 H        -3.590546         0.075579         3.243726
 H        -5.075326        -0.936810         2.671963
 H        -3.881898        -1.775136         3.643622
