19
Iteration:  2581
 C         1.890913        -0.140979         0.198295
 C         0.466655        -0.340562         0.028831
 C        -0.734910        -0.350306        -0.180925
 C        -2.125480        -0.298491        -0.251471
 C        -2.790259         0.886570        -1.196426
 O        -2.627222        -0.109174         1.154662
 C        -3.445399        -1.040173         1.561695
 C        -4.006486        -0.806113         3.047267
 O        -3.667902        -2.092323         0.935731
 H         2.450071        -0.255792        -0.661663
 H         2.135549         0.932969         0.441124
 H         2.138248        -0.812052         1.091966
 H        -2.426377        -1.339842        -0.467416
 H        -2.016010         1.744992        -1.308112
 H        -3.003310         0.441914        -2.149398
 H        -3.714385         1.274286        -0.845716
 H        -3.122199        -0.781345         3.721338
 H        -4.198586         0.250576         3.074155
 H        -4.679822        -1.495551         3.484733
