19
Iteration:  4559
 C         2.098467        -0.278675        -0.226649
 C         0.594920        -0.469818        -0.257760
 C        -0.638895        -0.762328        -0.240166
 C        -2.055945        -0.567450        -0.185855
 C        -2.431777         0.615372        -1.079789
 O        -2.476279        -0.358756         1.238152
 C        -3.668697        -0.744253         1.750334
 C        -3.677805        -0.843923         3.209083
 O        -4.707863        -1.028154         1.058914
 H         2.223642         0.518091         0.572025
 H         2.653400        -1.225428         0.119271
 H         2.444595         0.212331        -1.157656
 H        -2.647684        -1.425347        -0.432830
 H        -3.567499         0.791445        -1.149550
 H        -1.811850         1.498221        -0.683097
 H        -2.048377         0.530671        -2.103204
 H        -2.667718        -1.124538         3.591905
 H        -3.926510         0.195769         3.543036
 H        -4.478904        -1.489678         3.637336
