19
Iteration:  1369
 C         1.614647        -0.399557         0.310142
 C         0.220091        -0.071562         0.111995
 C        -0.944948        -0.100876        -0.262421
 C        -2.388676        -0.069283        -0.450533
 C        -3.055684         1.167939        -1.203130
 O        -2.985833        -0.035502         0.954259
 C        -3.093514        -1.310435         1.637929
 C        -4.006758        -1.095335         2.867293
 O        -2.464806        -2.256818         1.301025
 H         2.286855         0.154715        -0.288013
 H         1.965767        -0.085028         1.402524
 H         1.802140        -1.480941         0.197245
 H        -2.708726        -1.041600        -0.828430
 H        -3.203177         2.032830        -0.493495
 H        -2.520669         1.537958        -1.973605
 H        -4.036777         0.844715        -1.646607
 H        -4.585360        -2.031440         3.091522
 H        -3.346483        -0.831407         3.737911
 H        -4.653031        -0.211600         2.900058
