19
Iteration:  4685
 C         2.061056        -0.377875        -0.129226
 C         0.623434        -0.397752        -0.512705
 C        -0.555709        -0.518337        -0.292739
 C        -2.007203        -0.632416        -0.123381
 C        -2.723324         0.605477        -0.762775
 O        -2.304025        -0.676370         1.359652
 C        -3.744249        -0.789315         1.622836
 C        -3.671908        -0.594271         3.140738
 O        -4.647996        -0.982012         0.887088
 H         2.423549         0.621038         0.059460
 H         2.304207        -0.917242         0.755608
 H         2.619428        -0.940351        -0.909734
 H        -2.468164        -1.597598        -0.471494
 H        -3.792674         0.595215        -0.608984
 H        -2.343705         1.562794        -0.326264
 H        -2.499154         0.700112        -1.931882
 H        -2.603131        -0.558808         3.471509
 H        -4.054459         0.454933         3.235012
 H        -4.259276        -1.259347         3.778063
