19
Iteration:  1917
 C         1.934273         0.220395         0.067546
 C         0.531299         0.141147        -0.007815
 C        -0.588901        -0.306608        -0.321719
 C        -1.988140        -0.548645        -0.252710
 C        -2.706410         0.553360        -1.119840
 O        -2.530054        -0.280908         1.221742
 C        -3.514537        -1.149353         1.669371
 C        -4.040117        -0.781760         3.060146
 O        -4.028862        -2.071616         0.974372
 H         2.547377         0.175829        -0.990689
 H         2.195902         1.117170         0.768680
 H         2.197081        -0.635794         0.614466
 H        -2.252218        -1.580883        -0.489996
 H        -2.800221         1.514063        -0.609434
 H        -2.312605         0.766081        -2.180698
 H        -3.833564         0.363943        -1.285990
 H        -4.166338         0.295048         3.031284
 H        -4.990862        -1.318478         3.335632
 H        -3.272048        -0.944266         3.847634
