19
Iteration:  4633charge 0 multiplicity 1
 C         1.807221        -0.096208        -0.174994
 C         0.465036        -0.663624        -0.051890
 C        -0.685704        -0.923324        -0.481392
 C        -2.064644        -0.576383        -0.186974
 C        -2.506575         0.755235        -0.903466
 O        -2.240866        -0.664368         1.227087
 C        -3.527939        -0.831452         1.744098
 C        -3.689454        -0.649430         3.174880
 O        -4.504316        -0.876410         0.947012
 H         1.582317         0.939703         0.275660
 H         2.548562        -0.467377         0.575054
 H         2.273593        -0.287902        -1.190625
 H        -2.916517        -1.294752        -0.596351
 H        -3.571238         0.946600        -0.832132
 H        -1.932467         1.720954        -0.779180
 H        -2.298759         0.534882        -1.942171
 H        -2.814608        -0.827954         3.823086
 H        -4.236773         0.278086         3.218461
 H        -4.396316        -1.403441         3.537259
