19
Iteration:  3542
 C         1.800695        -0.049604         0.373164
 C         0.461927        -0.362550        -0.186292
 C        -0.690095        -0.721500        -0.325670
 C        -2.161556        -0.555236        -0.303544
 C        -2.715131         0.564926        -1.142725
 O        -2.400996        -0.170419         1.114442
 C        -3.507505        -0.836621         1.637736
 C        -3.667444        -0.500202         3.062260
 O        -4.128077        -1.715747         0.984582
 H         2.545787        -0.653159        -0.220534
 H         2.046720         1.102987         0.281294
 H         1.891652        -0.489149         1.422896
 H        -2.476946        -1.602587        -0.427562
 H        -3.808787         0.427372        -0.921555
 H        -2.347608         1.510454        -0.734124
 H        -2.666231         0.440563        -2.192580
 H        -4.522164         0.172989         3.214729
 H        -3.828218        -1.445562         3.569269
 H        -2.725444        -0.091434         3.352473
