19
Iteration:  2671charge 0 multiplicity 1
 C         2.024185        -0.130231         0.058020
 C         0.561972        -0.061901        -0.002214
 C        -0.621255        -0.212962        -0.182649
 C        -1.986277        -0.419376        -0.219955
 C        -2.844062         0.671550        -0.925922
 O        -2.391919        -0.424511         1.229452
 C        -3.552161        -1.109168         1.577314
 C        -4.035386        -0.573884         2.878668
 O        -4.120021        -1.951214         0.938470
 H         2.443655         0.344480        -0.749914
 H         2.547258         0.473511         0.884983
 H         2.529286        -1.188964         0.010219
 H        -2.249939        -1.319937        -0.792620
 H        -3.474310         1.164348        -0.266635
 H        -2.098791         1.234241        -1.553560
 H        -3.531687         0.211274        -1.680108
 H        -3.956261         0.480697         3.021675
 H        -5.104327        -0.738588         2.771053
 H        -3.579396        -0.962977         3.791313
