19
Iteration:  2451charge 0 multiplicity 1
 C         1.717862        -0.517221         0.198606
 C         0.346886        -0.286268         0.254948
 C        -0.800671        -0.157021        -0.136988
 C        -2.239004        -0.088836        -0.469984
 C        -2.726181         1.207715        -1.110257
 O        -3.015431        -0.047156         0.815279
 C        -3.345959        -1.202545         1.624345
 C        -3.793922        -0.737791         2.915255
 O        -3.228024        -2.379778         1.251815
 H         1.901555        -1.500402         0.130942
 H         2.131917         0.140491        -0.613276
 H         2.186557        -0.126356         1.119757
 H        -2.496479        -0.958704        -0.992201
 H        -2.772602         2.034315        -0.304811
 H        -1.955072         1.305356        -1.843418
 H        -3.690831         1.044633        -1.522188
 H        -4.611822        -1.383711         3.280670
 H        -3.004807        -1.002279         3.630259
 H        -3.801166         0.314069         3.046966
