19
Iteration:   920charge 0 multiplicity 1
 C         1.973050         0.777081        -0.226596
 C         0.578461         0.409544        -0.125825
 C        -0.545150         0.022686         0.166940
 C        -1.913447        -0.531283         0.071441
 C        -2.854132         0.258881        -0.890083
 O        -2.460990        -0.616436         1.362338
 C        -3.562786        -1.376487         1.520011
 C        -3.956090        -1.103611         2.933399
 O        -4.200066        -1.944484         0.616896
 H         2.216348         1.669823         0.257896
 H         2.601367         0.034895         0.306280
 H         2.463684         0.920962        -1.334152
 H        -1.931176        -1.646769        -0.350113
 H        -2.960379         1.352777        -0.667920
 H        -2.452274         0.318107        -2.012510
 H        -3.813123        -0.300453        -0.876446
 H        -4.449003        -0.157455         3.188112
 H        -4.794424        -1.728823         3.284852
 H        -3.048716        -1.314145         3.465558
