19
Iteration:  2927charge 0 multiplicity 1
 C         1.991558         0.229277         0.028766
 C         0.662448        -0.407395        -0.059869
 C        -0.545892        -0.592892        -0.118946
 C        -1.996386        -0.612601        -0.155318
 C        -2.656706         0.599088        -1.043775
 O        -2.393249        -0.523391         1.264747
 C        -3.653657        -0.884504         1.613188
 C        -3.960936        -0.707024         3.034433
 O        -4.377891        -1.493227         0.786933
 H         1.957834         1.096220         0.576755
 H         2.762498        -0.467966         0.311392
 H         2.139867         0.712507        -0.951801
 H        -2.188442        -1.603382        -0.593678
 H        -3.682711         0.620242        -0.673733
 H        -2.018009         1.477237        -0.839567
 H        -2.677246         0.319520        -2.082287
 H        -3.511122        -1.395383         3.748037
 H        -3.555065         0.304417         3.322193
 H        -5.084031        -0.629941         3.091329
