19
Iteration:  1001
 C         1.892040         0.555206        -0.011861
 C         0.503200         0.163891        -0.192086
 C        -0.680778        -0.041634        -0.078536
 C        -2.036803        -0.401070        -0.086544
 C        -2.779721         0.575020        -1.033565
 O        -2.680360        -0.281180         1.263030
 C        -3.558750        -1.326924         1.593612
 C        -3.969158        -1.186082         3.015460
 O        -3.678576        -2.234518         0.832576
 H         1.969434         0.788574         1.146335
 H         2.510401        -0.199233        -0.343855
 H         2.111965         1.443014        -0.580186
 H        -2.161340        -1.406812        -0.384259
 H        -3.109204         1.479903        -0.479550
 H        -2.131856         0.875797        -1.793395
 H        -3.659078         0.164055        -1.582342
 H        -5.055597        -1.143989         3.100580
 H        -3.519558        -1.954235         3.691585
 H        -3.749366        -0.205077         3.532712
