19
Iteration:  2066
 C         1.873646        -0.353383         0.226122
 C         0.488034        -0.133403        -0.131871
 C        -0.762697        -0.094635        -0.100332
 C        -2.216238        -0.119435        -0.239830
 C        -2.807606         1.012608        -1.232918
 O        -2.981654        -0.086434         0.948068
 C        -3.349169        -1.191077         1.646116
 C        -3.987248        -0.814191         2.957873
 O        -3.284642        -2.373460         1.275298
 H         2.368974         0.543332        -0.040577
 H         2.036349        -0.490591         1.284977
 H         2.431469        -1.142387        -0.446331
 H        -2.356198        -1.115620        -0.829119
 H        -2.914029         1.974154        -0.836525
 H        -2.099971         1.246494        -2.130080
 H        -3.757416         0.662519        -1.718654
 H        -4.221411        -1.844937         3.340339
 H        -3.261024        -0.216617         3.612460
 H        -4.926780        -0.279749         3.012164
