19
Iteration:  2077charge 0 multiplicity 1
 C         1.932740        -0.328836         0.212291
 C         0.482032        -0.276470        -0.060330
 C        -0.756438        -0.049235        -0.094514
 C        -2.237295        -0.101453        -0.423775
 C        -2.863665         1.041334        -1.198146
 O        -2.990594        -0.037928         0.935873
 C        -3.350951        -1.199396         1.638289
 C        -3.988409        -0.860901         2.967790
 O        -3.229168        -2.334790         1.311604
 H         2.438355         0.585913         0.142275
 H         2.022054        -0.666196         1.247473
 H         2.481759        -1.186008        -0.360539
 H        -2.505531        -1.148202        -0.857692
 H        -2.993642         1.860460        -0.580603
 H        -2.203657         1.153021        -2.138859
 H        -3.892587         0.665331        -1.463585
 H        -4.087375        -1.764687         3.604616
 H        -3.510518        -0.096001         3.663725
 H        -4.940782        -0.480341         2.604785
