19
Iteration:  1643
 C         2.160014         0.461895        -0.142169
 C         0.733640         0.071197        -0.034755
 C        -0.460831        -0.092451        -0.142416
 C        -1.925074        -0.473912        -0.057568
 C        -3.063278         0.268990        -0.951043
 O        -2.444778        -0.423676         1.313481
 C        -3.606993        -1.099195         1.609624
 C        -4.101685        -1.069902         3.042045
 O        -4.181064        -1.771604         0.747955
 H         2.864015         0.407584         0.725542
 H         2.547298        -0.324444        -0.918492
 H         2.215435         1.410916        -0.574275
 H        -1.983243        -1.504272        -0.400499
 H        -3.148120         1.297789        -0.699048
 H        -2.633304         0.469793        -2.014078
 H        -3.947582        -0.301895        -0.964208
 H        -4.849802        -0.343332         3.392135
 H        -4.683662        -2.025201         3.104768
 H        -3.297000        -1.092422         3.801161
