19
Iteration:  4625charge 0 multiplicity 1
 C         1.753965        -0.095926        -0.139818
 C         0.453805        -0.714679        -0.074769
 C        -0.683549        -0.899260        -0.444016
 C        -2.131775        -0.552481        -0.179629
 C        -2.402172         0.740566        -0.939435
 O        -2.300559        -0.646892         1.249067
 C        -3.534623        -0.797418         1.671769
 C        -3.654736        -0.720024         3.197847
 O        -4.454117        -0.882714         0.957778
 H         1.605789         1.009580        -0.051551
 H         2.537329        -0.503417         0.541993
 H         1.984899         0.039594        -1.172325
 H        -2.714189        -1.273237        -0.695179
 H        -3.524687         0.793258        -0.880004
 H        -1.933630         1.696468        -0.673872
 H        -2.298408         0.467540        -1.930605
 H        -2.767785        -0.579795         3.826655
 H        -4.070974         0.294617         3.306921
 H        -4.465274        -1.339251         3.634633
