19
Iteration:  4849
 C         1.917727        -0.661168        -0.577492
 C         0.492635        -0.544650        -0.130992
 C        -0.712372        -0.515310        -0.015958
 C        -2.095042        -0.263737        -0.087866
 C        -2.388867         1.061687        -0.965336
 O        -2.587451        -0.069375         1.263013
 C        -3.548791        -0.901788         1.736661
 C        -4.056572        -0.551724         3.102172
 O        -4.000762        -1.858530         1.045510
 H         1.983422        -0.107639        -1.517876
 H         2.654809        -0.363394         0.157872
 H         1.966125        -1.789642        -0.631257
 H        -2.562031        -1.155710        -0.474719
 H        -3.404214         1.457246        -0.678831
 H        -1.660451         1.891381        -0.773388
 H        -2.343407         0.662791        -1.956399
 H        -4.086082        -1.491974         3.777744
 H        -3.413298         0.182874         3.650952
 H        -5.133917        -0.253027         3.105119
