19
Iteration:  1950
 C         1.911246         0.176618         0.070911
 C         0.499555        -0.121111        -0.182804
 C        -0.706133        -0.267393         0.008338
 C        -2.151134        -0.423990        -0.145809
 C        -2.668041         0.626666        -1.213900
 O        -2.657493        -0.108216         1.197830
 C        -3.511826        -1.122358         1.626355
 C        -3.924797        -0.869513         2.965715
 O        -3.821477        -2.125621         0.971130
 H         2.693314         0.617202        -0.716815
 H         1.881946         0.899727         0.972621
 H         2.351239        -0.703151         0.447978
 H        -2.422408        -1.454120        -0.267061
 H        -2.154326         1.581210        -1.030515
 H        -2.296588         0.236596        -2.192102
 H        -3.797419         0.562726        -1.212670
 H        -4.667786        -0.084989         2.965018
 H        -4.321872        -1.742105         3.513351
 H        -3.094420        -0.499810         3.589044
