19
Iteration:  1233charge 0 multiplicity 1
 C         1.622835        -0.367524         0.400887
 C         0.196266        -0.155471         0.088074
 C        -1.022937        -0.010595        -0.042820
 C        -2.458065         0.014911        -0.425108
 C        -2.967816         1.255147        -1.218135
 O        -3.434886        -0.285573         0.664564
 C        -3.049699        -1.288612         1.539781
 C        -3.696479        -1.061331         2.955756
 O        -2.349341        -2.237123         1.395144
 H         2.161945        -1.258863        -0.244737
 H         2.153412         0.562802         0.295518
 H         1.693040        -0.582239         1.413204
 H        -2.561766        -0.794135        -1.122488
 H        -2.757336         2.084300        -0.609335
 H        -2.365510         1.325146        -2.176485
 H        -3.996959         1.210087        -1.434491
 H        -3.741523         0.014051         3.186480
 H        -4.659472        -1.547320         2.886901
 H        -2.954095        -1.634120         3.587136
