19
Iteration:  1180charge 0 multiplicity 1
 C         1.631943        -0.176040         0.387986
 C         0.178148        -0.043908         0.135944
 C        -0.984425        -0.102949        -0.207860
 C        -2.464301        -0.073458        -0.325006
 C        -3.003990         1.070473        -1.211993
 O        -3.039007        -0.129627         0.946824
 C        -3.067907        -1.333543         1.566487
 C        -3.770852        -1.033709         2.898048
 O        -2.621361        -2.349816         1.175408
 H         1.864886        -1.241251         0.218089
 H         2.279199         0.475358        -0.328511
 H         1.812938         0.093020         1.359325
 H        -2.794258        -0.945671        -0.864163
 H        -3.355940         1.817489        -0.620808
 H        -2.154328         1.545256        -1.844294
 H        -3.687546         0.615453        -1.841120
 H        -2.969494        -0.356627         3.336955
 H        -4.611186        -0.347646         2.633568
 H        -4.121598        -2.013027         3.393571
