19
Iteration:  2263
 C         1.588864        -0.797873         0.221716
 C         0.188100        -0.237414         0.226148
 C        -1.018809        -0.158477        -0.005757
 C        -2.344714        -0.056854        -0.520883
 C        -2.709887         1.420912        -1.031559
 O        -3.391486        -0.265196         0.531584
 C        -3.139931        -1.128276         1.635277
 C        -3.816078        -0.810822         2.893484
 O        -2.498216        -2.150488         1.489485
 H         2.029702        -0.843057         1.166572
 H         1.692523        -1.791499        -0.272259
 H         2.284273        -0.052940        -0.446771
 H        -2.438918        -0.871521        -1.213967
 H        -2.757300         2.194783        -0.281809
 H        -1.863412         1.741886        -1.682738
 H        -3.596747         1.510388        -1.745054
 H        -4.039575         0.234526         2.871894
 H        -4.820527        -1.282373         2.803309
 H        -3.314969        -1.308210         3.766053
