19
Iteration:  4409charge 0 multiplicity 1
 C         2.037261        -0.675314        -0.434251
 C         0.529295        -0.662203        -0.228069
 C        -0.669570        -0.430236        -0.116224
 C        -2.114491        -0.252162        -0.071237
 C        -2.554381         1.042816        -0.835328
 O        -2.626877        -0.045810         1.214018
 C        -3.540719        -0.914059         1.702573
 C        -4.077228        -0.506899         3.028002
 O        -3.934801        -1.896428         1.082121
 H         2.550126        -0.845586         0.492877
 H         2.105241        -1.494315        -1.138002
 H         2.297891         0.347088        -0.832747
 H        -2.707474        -1.213459        -0.478918
 H        -3.677619         1.210531        -0.825861
 H        -2.206269         1.980388        -0.444518
 H        -2.143600         0.924315        -1.819622
 H        -4.003148        -1.386936         3.690039
 H        -3.505432         0.302479         3.495755
 H        -5.147228        -0.309459         2.904137
