19
Iteration:  2277
 C         1.605050        -0.756580         0.254990
 C         0.255725        -0.315076         0.067746
 C        -0.968854        -0.104951         0.036809
 C        -2.409610         0.009043        -0.448117
 C        -2.679922         1.395237        -1.100610
 O        -3.420366        -0.225474         0.552720
 C        -3.191743        -1.155279         1.497779
 C        -3.863745        -0.816990         2.887582
 O        -2.461443        -2.179450         1.563349
 H         1.734760        -0.959469         1.404961
 H         1.542179        -1.774664        -0.243226
 H         2.394443        -0.141644        -0.127137
 H        -2.552417        -0.699215        -1.329867
 H        -2.673699         2.016856        -0.117221
 H        -1.993491         1.786653        -1.748198
 H        -3.637321         1.269923        -1.509348
 H        -3.977628         0.213606         3.243511
 H        -4.729834        -1.442470         3.040199
 H        -3.049543        -1.196839         3.491890
