19
Iteration:  3470charge 0 multiplicity 1
 C         1.933226        -0.314643         0.067369
 C         0.475965        -0.294789         0.030258
 C        -0.725900        -0.521930        -0.091392
 C        -2.273859        -0.340171        -0.363957
 C        -2.431050         0.887375        -1.215023
 O        -2.797692        -0.122864         0.926214
 C        -3.482756        -1.027787         1.645138
 C        -3.875426        -0.411658         2.966937
 O        -3.826152        -2.132995         1.356401
 H         2.263277        -1.231398        -0.412436
 H         2.406679         0.525333        -0.333390
 H         2.149858        -0.582997         1.098227
 H        -2.613935        -1.333710        -0.663005
 H        -3.590104         0.891879        -1.325872
 H        -2.131652         1.761975        -0.693082
 H        -2.075463         0.721905        -2.254088
 H        -4.765536         0.256326         2.812631
 H        -4.143732        -1.188931         3.668689
 H        -3.069645         0.210837         3.433253
