19
Iteration:  3730
 C         1.981054         0.393243        -0.496463
 C         0.689069        -0.319080        -0.220941
 C        -0.371629        -0.813939         0.130263
 C        -1.892708        -0.898230         0.111839
 C        -2.420266         0.146728        -0.853154
 O        -2.409147        -0.503102         1.406281
 C        -3.732294        -0.739729         1.600237
 C        -4.129596        -0.765778         3.023738
 O        -4.579132        -0.923509         0.663725
 H         2.525250         0.101949        -1.432953
 H         1.871307         1.528704        -0.350563
 H         2.761548         0.066483         0.285388
 H        -2.273975        -1.946369        -0.014446
 H        -3.490181         0.211751        -0.683005
 H        -2.125253         1.116324        -0.627134
 H        -2.291532        -0.133167        -1.903981
 H        -5.186605        -0.719357         3.164939
 H        -3.902792        -1.702367         3.523311
 H        -3.672149        -0.059162         3.691446
