19
Iteration:   667
 C         1.827307         0.557045         0.164521
 C         0.444797         0.327592        -0.114407
 C        -0.709118         0.079443        -0.255716
 C        -2.065151        -0.375261        -0.076419
 C        -3.083208         0.310985        -0.947925
 O        -2.528508        -0.310065         1.291585
 C        -3.316932        -1.335375         1.591497
 C        -3.864266        -1.198467         2.900876
 O        -3.724796        -2.117647         0.744601
 H         2.456919        -0.160647        -0.335926
 H         2.335944         1.489665        -0.098793
 H         2.082585         0.404849         1.347034
 H        -2.056636        -1.446333        -0.282620
 H        -3.363859         1.380187        -0.642681
 H        -2.624513         0.469489        -1.906682
 H        -3.871579        -0.426052        -1.153472
 H        -4.800668        -1.686362         2.962563
 H        -3.176501        -1.767745         3.519192
 H        -3.824865        -0.140019         3.175528
