19
Iteration:  4315
 C         1.701189        -0.811949        -0.235804
 C         0.242161        -0.793513        -0.233006
 C        -0.939085        -0.683580        -0.147857
 C        -2.288894        -0.117669        -0.277834
 C        -2.238808         1.341741        -0.845053
 O        -2.969213         0.141668         1.003543
 C        -3.424783        -0.918253         1.673911
 C        -4.105201        -0.589891         3.065465
 O        -3.136207        -1.993530         1.292148
 H         2.212876        -1.571838         0.434491
 H         2.040843        -0.978734        -1.286327
 H         2.083282         0.123406         0.073967
 H        -2.760416        -0.785382        -0.928099
 H        -3.283404         1.663386        -1.148514
 H        -1.963713         2.137788        -0.083895
 H        -1.498932         1.266257        -1.732135
 H        -4.832015        -1.362345         3.303983
 H        -3.291762        -0.774702         3.771786
 H        -4.479229         0.448638         3.188902
