19
Iteration:   203charge 0 multiplicity 1
 C         1.493782         0.261480         0.346092
 C         0.099265         0.019952         0.191705
 C        -1.045569        -0.110229        -0.166633
 C        -2.480460        -0.111530        -0.456765
 C        -2.900056         1.180089        -1.198099
 O        -3.081782        -0.245677         0.827610
 C        -3.044804        -1.435521         1.568305
 C        -3.678873        -1.298052         3.015305
 O        -2.526217        -2.476632         1.197576
 H         2.041119        -0.093701        -0.400114
 H         1.595694         1.341683         0.265951
 H         2.147045        -0.069687         1.298760
 H        -2.803013        -0.928832        -1.116229
 H        -2.942857         2.016619        -0.361302
 H        -2.095521         1.699241        -1.888446
 H        -3.861602         1.147599        -1.865848
 H        -4.446304        -2.088447         3.227254
 H        -3.075218        -1.537355         3.904090
 H        -4.230275        -0.364799         3.247984
