19
Iteration:  3111
 C         1.693479        -0.833907         0.426338
 C         0.339476        -0.402750         0.017317
 C        -0.816152        -0.102572        -0.312007
 C        -2.297730        -0.034856        -0.388860
 C        -2.767275         1.037572        -1.334108
 O        -2.949564         0.082550         0.912858
 C        -3.184926        -1.038461         1.665714
 C        -4.018501        -0.690139         2.901094
 O        -3.011639        -2.165436         1.387408
 H         1.623786        -1.178510         1.510052
 H         1.944960        -1.723684        -0.175926
 H         2.441304        -0.116250         0.458709
 H        -2.453746        -0.950502        -0.899710
 H        -3.821193         0.717820        -1.371954
 H        -2.599258         2.074245        -0.951878
 H        -2.521195         1.081910        -2.375219
 H        -3.438235        -0.077879         3.536365
 H        -5.051979        -0.394622         2.735278
 H        -4.207470        -1.652329         3.345784
