19
Iteration:  1169
 C         1.582659        -0.134677         0.371458
 C         0.175924        -0.062251         0.117803
 C        -0.978667        -0.125904        -0.199798
 C        -2.383853        -0.051591        -0.379405
 C        -3.004238         1.076529        -1.273668
 O        -2.963880        -0.108893         1.008558
 C        -3.090682        -1.316391         1.633090
 C        -3.788933        -1.039628         2.907180
 O        -2.675943        -2.402539         1.131078
 H         2.064245        -1.130947         0.412092
 H         2.170881         0.509440        -0.386875
 H         1.817979         0.265579         1.289263
 H        -2.639232        -1.017158        -0.802761
 H        -3.410081         1.859746        -0.758518
 H        -2.179162         1.473307        -1.981614
 H        -3.803394         0.759803        -1.855270
 H        -3.177041        -0.768001         3.815812
 H        -4.600738        -0.290082         2.837551
 H        -4.230566        -1.978897         3.394393
