19
Iteration:  2125
 C         1.686329        -0.417169         0.271534
 C         0.256437        -0.264116         0.091090
 C        -0.960207        -0.324479        -0.173308
 C        -2.350256        -0.143623        -0.335598
 C        -2.843404         1.077270        -1.174384
 O        -2.852001         0.066292         1.064997
 C        -3.153298        -1.146606         1.633512
 C        -4.054259        -0.833915         2.742086
 O        -2.844482        -2.279209         1.182137
 H         2.224464         0.627903         0.492353
 H         2.019309        -1.154324         1.071268
 H         2.082885        -0.765571        -0.602924
 H        -2.698461        -1.159486        -0.677164
 H        -2.337510         1.936948        -0.580257
 H        -2.518621         0.949999        -2.163929
 H        -3.926438         1.263990        -1.021753
 H        -3.541656        -0.969184         3.704656
 H        -4.129385         0.265288         2.732044
 H        -5.086074        -1.299965         2.753946
