19
Iteration:  1902charge 0 multiplicity 1
 C         2.042814         0.273614         0.117312
 C         0.577053         0.108069         0.014222
 C        -0.602720        -0.224120        -0.296230
 C        -2.036369        -0.526997        -0.295586
 C        -2.836403         0.482219        -1.019429
 O        -2.475430        -0.393689         1.170578
 C        -3.533778        -1.148248         1.617789
 C        -3.987917        -0.727342         2.959491
 O        -4.119694        -2.023826         1.029566
 H         2.343697         0.193917        -0.939993
 H         2.403043         1.239468         0.362500
 H         2.661951        -0.527286         0.629196
 H        -2.266332        -1.599806        -0.565915
 H        -2.756860         1.345115        -0.391048
 H        -2.229176         0.710436        -1.912146
 H        -3.786356         0.086767        -1.204841
 H        -3.947826         0.370168         3.122380
 H        -4.987005        -1.089997         3.075907
 H        -3.490862        -1.239204         3.770018
