19
Iteration:  2570
 C         1.834852        -0.158156         0.213707
 C         0.423482        -0.349435         0.052762
 C        -0.775213        -0.294413        -0.146589
 C        -2.218780        -0.260889        -0.241591
 C        -2.688279         0.845013        -1.298799
 O        -2.608727        -0.023489         1.195254
 C        -3.476738        -1.116450         1.615395
 C        -3.931256        -0.818242         3.022241
 O        -3.623093        -2.101444         0.931185
 H         2.151768        -0.553928        -0.681058
 H         2.043370         0.941908         0.289755
 H         2.570809        -0.680471         0.919194
 H        -2.729514        -1.188013        -0.519605
 H        -1.899738         1.705714        -1.276420
 H        -2.822837         0.452110        -2.281576
 H        -3.565553         1.239987        -0.848508
 H        -3.093306        -1.209671         3.630574
 H        -4.249141         0.179925         3.247863
 H        -4.811214        -1.397755         3.211127
