19
Iteration:  1266
 C         1.394370        -0.385297         0.385984
 C         0.029349        -0.173903         0.218268
 C        -1.114230        -0.102634        -0.119549
 C        -2.490529        -0.050238        -0.480827
 C        -2.845113         1.217884        -1.126105
 O        -3.235651        -0.241887         0.682703
 C        -2.969110        -1.234411         1.597905
 C        -3.841228        -1.070388         2.924041
 O        -2.149427        -2.145566         1.292448
 H         1.989032        -0.908287        -0.568360
 H         1.877501         0.557549         0.516848
 H         1.698115        -0.988486         1.162743
 H        -2.686831        -0.931855        -1.050181
 H        -2.188107         1.957249        -0.780991
 H        -2.711028         1.187054        -2.274317
 H        -3.779882         1.576868        -0.876265
 H        -4.542706        -0.208920         2.901123
 H        -4.392986        -1.996802         3.105468
 H        -3.138730        -0.800858         3.780956
