19
Iteration:  4312
 C         1.701022        -0.817586        -0.216262
 C         0.263377        -0.820914        -0.234688
 C        -0.955555        -0.673501        -0.149615
 C        -2.278823        -0.117359        -0.286060
 C        -2.260981         1.344793        -0.838192
 O        -2.972880         0.164506         1.000716
 C        -3.425349        -0.887111         1.679715
 C        -4.095585        -0.599379         3.060334
 O        -3.106701        -2.009361         1.286647
 H         2.132383        -1.636939         0.413349
 H         1.893152        -1.003061        -1.285319
 H         2.156296         0.175867         0.102736
 H        -2.815834        -0.844392        -0.952042
 H        -3.267699         1.686424        -1.166560
 H        -2.036734         2.037938        -0.124294
 H        -1.590201         1.342605        -1.675608
 H        -4.888386        -1.322277         3.282866
 H        -3.302494        -0.798971         3.773925
 H        -4.481318         0.393544         3.173658
