19
Iteration:  2003
 C         1.919641        -0.061193         0.028270
 C         0.472807        -0.120125         0.182194
 C        -0.731884        -0.295470         0.038034
 C        -2.154065        -0.272172        -0.289629
 C        -2.705722         0.804132        -1.297587
 O        -2.886167         0.007592         1.055844
 C        -3.463677        -1.140520         1.563807
 C        -3.879529        -0.887630         3.021118
 O        -3.569677        -2.232917         1.097354
 H         1.987764         0.773360        -0.774200
 H         2.554465         0.418664         0.829807
 H         2.404335        -0.937451        -0.219568
 H        -2.554366        -1.314825        -0.466841
 H        -2.376879         1.759559        -1.073363
 H        -2.462364         0.403951        -2.338446
 H        -3.806316         0.636118        -1.133854
 H        -4.905372        -1.218607         3.147252
 H        -3.445566        -1.713236         3.627733
 H        -3.694790         0.135769         3.321543
