19
Iteration:  2417charge 0 multiplicity 1
 C         1.681638        -0.566319         0.386956
 C         0.345058        -0.325436        -0.047162
 C        -0.850876        -0.242418        -0.184133
 C        -2.321427        -0.089318        -0.432392
 C        -2.798048         1.191560        -1.100671
 O        -3.003475         0.005515         0.920910
 C        -3.226811        -1.143211         1.602460
 C        -3.928796        -0.844391         2.961921
 O        -2.970566        -2.242694         1.170860
 H         1.853233        -1.497425         0.669755
 H         2.472202        -0.382771        -0.376290
 H         1.923050         0.090763         1.278410
 H        -2.774488        -0.937397        -0.790486
 H        -2.125452         2.071816        -0.779714
 H        -2.543305         1.138879        -2.124713
 H        -3.873799         1.352014        -1.107362
 H        -5.011899        -0.884559         3.047001
 H        -3.404069        -1.494381         3.645474
 H        -3.827126         0.229296         3.138812
