19
Iteration:  4555charge 0 multiplicity 1
 C         2.125912        -0.297765        -0.215860
 C         0.593483        -0.478607        -0.253681
 C        -0.620684        -0.700289        -0.226619
 C        -2.095251        -0.534817        -0.184752
 C        -2.448802         0.601961        -1.091623
 O        -2.491022        -0.389041         1.227796
 C        -3.674980        -0.738579         1.749159
 C        -3.688577        -0.842670         3.217630
 O        -4.671209        -1.030448         1.063509
 H         2.392822         0.510178         0.522396
 H         2.588138        -1.244997         0.022249
 H         2.350431         0.190774        -1.169228
 H        -2.639568        -1.500879        -0.537134
 H        -3.468573         0.826040        -1.179434
 H        -1.868784         1.428533        -0.726628
 H        -2.062569         0.460441        -2.077079
 H        -2.722158        -1.092264         3.639025
 H        -3.898868         0.141809         3.651080
 H        -4.498047        -1.439604         3.584871
