19
Iteration:   486
 C         1.653004         0.382242         0.141683
 C         0.231801        -0.002621         0.044256
 C        -0.956034        -0.151904        -0.160876
 C        -2.402238        -0.234202        -0.358441
 C        -2.807343         1.013900        -1.089725
 O        -3.030837        -0.172836         1.064978
 C        -3.144261        -1.397703         1.636345
 C        -3.919227        -1.227398         2.896251
 O        -2.711054        -2.422553         1.164034
 H         1.991645         0.475308         1.288039
 H         2.260055        -0.411086        -0.333966
 H         1.696650         1.295761        -0.405966
 H        -2.849684        -1.209244        -0.831357
 H        -2.710204         1.940842        -0.405795
 H        -2.115005         0.918128        -1.899033
 H        -3.830435         0.941389        -1.565558
 H        -3.623814        -0.236854         3.334501
 H        -4.995389        -0.973624         2.630525
 H        -3.900616        -2.156847         3.534341
