19
Iteration:   664
 C         1.850533         0.539025         0.179386
 C         0.458589         0.341732        -0.129832
 C        -0.714485         0.069271        -0.235414
 C        -2.093492        -0.376559        -0.077241
 C        -3.097689         0.320579        -0.961190
 O        -2.530383        -0.289699         1.299762
 C        -3.303965        -1.343251         1.579307
 C        -3.852901        -1.187996         2.920454
 O        -3.713304        -2.140132         0.732249
 H         2.420367        -0.216480        -0.238955
 H         2.293692         1.569881        -0.121151
 H         2.003131         0.434965         1.223836
 H        -2.122445        -1.500441        -0.259617
 H        -3.396066         1.301690        -0.606283
 H        -2.573526         0.526580        -1.946787
 H        -3.902312        -0.383810        -1.109055
 H        -4.839759        -1.573387         2.953291
 H        -3.208009        -1.797569         3.454341
 H        -3.827753        -0.173091         3.145391
