19
Iteration:   104
 C         1.790461         0.423407         0.302548
 C         0.292700         0.311785         0.131573
 C        -0.885777         0.254124        -0.167840
 C        -2.239164        -0.164740        -0.421724
 C        -3.035851         0.839866        -1.193994
 O        -2.816142        -0.284396         1.121090
 C        -3.258375        -1.522511         1.572037
 C        -3.726454        -1.368936         3.015225
 O        -3.203615        -2.565475         0.952699
 H         2.325315        -0.437177         0.521320
 H         2.213601         0.787324        -0.647790
 H         2.232936         1.184022         1.158993
 H        -2.396343        -1.169275        -0.829634
 H        -2.665548         1.948800        -1.048897
 H        -3.002699         0.826142        -2.384133
 H        -4.142515         0.899425        -0.855571
 H        -4.630314        -2.000175         3.177839
 H        -3.074260        -1.727936         3.817534
 H        -3.884693        -0.343286         3.370772
