19
Iteration:  3114
 C         1.692012        -0.848266         0.447380
 C         0.335907        -0.412445        -0.004891
 C        -0.813896        -0.094898        -0.311484
 C        -2.301728        -0.046527        -0.405907
 C        -2.778435         1.054951        -1.322675
 O        -2.957924         0.096948         0.894418
 C        -3.199313        -1.028744         1.685226
 C        -4.019737        -0.688294         2.883798
 O        -2.981864        -2.195232         1.410361
 H         1.679406        -1.174616         1.461462
 H         1.908436        -1.736002        -0.201729
 H         2.520779        -0.058820         0.533437
 H        -2.552382        -0.948445        -0.970383
 H        -3.780116         0.862855        -1.398591
 H        -2.631016         2.054634        -0.897241
 H        -2.461941         1.110393        -2.407849
 H        -3.482144        -0.033057         3.617371
 H        -5.051179        -0.400050         2.722604
 H        -4.172893        -1.662883         3.328944
