19
Iteration:   123charge 0 multiplicity 1
 C         1.703329         0.423431         0.302878
 C         0.356208         0.190062         0.090294
 C        -0.838559         0.175701        -0.126941
 C        -2.278376        -0.105389        -0.220313
 C        -3.059404         0.936292        -1.234608
 O        -2.964232        -0.221074         0.964110
 C        -3.186949        -1.458990         1.549123
 C        -3.687527        -1.433869         2.978882
 O        -3.116588        -2.558730         1.058524
 H         2.207769        -0.508638         0.383154
 H         2.195919         1.029978        -0.474976
 H         1.836784         0.923533         1.264366
 H        -2.284670        -1.061582        -0.770245
 H        -2.691354         1.932129        -1.258763
 H        -2.763213         0.407370        -2.237761
 H        -4.120582         1.053318        -1.051817
 H        -4.551908        -2.088147         2.970663
 H        -2.890867        -1.827118         3.623150
 H        -3.841344        -0.459921         3.435304
