19
Iteration:  2934charge 0 multiplicity 1
 C         1.997293         0.200383         0.010943
 C         0.674606        -0.400801         0.015996
 C        -0.521352        -0.594622        -0.153040
 C        -2.070456        -0.568660        -0.199251
 C        -2.613893         0.586194        -1.014463
 O        -2.399290        -0.458384         1.226428
 C        -3.612287        -0.956765         1.546888
 C        -3.971539        -0.684164         3.040531
 O        -4.397728        -1.532047         0.859685
 H         1.851145         1.060903         0.870670
 H         2.912147        -0.412131         0.326080
 H         2.145699         0.618718        -1.047772
 H        -2.510448        -1.488054        -0.658321
 H        -3.762812         0.766088        -0.825623
 H        -2.126849         1.521531        -0.858593
 H        -2.482976         0.313983        -2.067868
 H        -3.408777        -1.344183         3.719689
 H        -3.551260         0.267657         3.274907
 H        -5.011340        -0.781659         3.235110
