19
Iteration:  2843
 C         2.171804         0.215928        -0.378064
 C         0.712776        -0.113732        -0.023192
 C        -0.490902        -0.340609         0.113241
 C        -1.866253        -0.689358        -0.052196
 C        -2.587716         0.237857        -1.032773
 O        -2.401830        -0.694809         1.398042
 C        -3.759559        -0.968044         1.616038
 C        -4.144663        -0.782517         3.042403
 O        -4.557121        -1.148302         0.741937
 H         2.419539         1.268185        -0.112511
 H         2.951932        -0.246215         0.194926
 H         2.429295        -0.061103        -1.341825
 H        -1.793119        -1.763526        -0.263996
 H        -3.526891        -0.041053        -1.430850
 H        -2.756746         1.278176        -0.643520
 H        -1.784491         0.276247        -1.811150
 H        -4.775089        -1.658969         3.156881
 H        -3.424556        -0.601775         3.851114
 H        -4.939471        -0.002954         3.063128
