19
Iteration:  2722
 C         2.070453         0.065746        -0.144818
 C         0.680218        -0.274130        -0.167714
 C        -0.520993        -0.297056        -0.000998
 C        -1.949847        -0.471276         0.037489
 C        -2.704637         0.446473        -1.043091
 O        -2.478033        -0.286137         1.326314
 C        -3.615602        -1.030822         1.585809
 C        -4.161948        -0.784550         2.977944
 O        -4.237047        -1.651941         0.772931
 H         2.454450         1.003233        -0.684311
 H         2.438055         0.301682         0.864311
 H         2.656788        -0.822335        -0.433107
 H        -2.252376        -1.476808        -0.338226
 H        -3.710044         0.651509        -0.481647
 H        -2.172842         1.373930        -1.285657
 H        -2.897637        -0.140234        -1.924154
 H        -4.737960         0.141917         3.086337
 H        -4.763539        -1.607931         3.403112
 H        -3.251363        -0.600847         3.588708
