19
Iteration:  1882charge 0 multiplicity 1
 C         2.021756         0.322277         0.055557
 C         0.631898        -0.023250        -0.042231
 C        -0.559621        -0.140426        -0.070792
 C        -1.966144        -0.510977        -0.214111
 C        -2.982832         0.472978        -1.004998
 O        -2.414095        -0.570260         1.179184
 C        -3.572469        -1.124248         1.528983
 C        -3.946220        -0.625581         2.969394
 O        -4.170734        -2.009990         0.940377
 H         2.739104         0.227692        -0.926700
 H         2.115892         1.432733         0.326294
 H         2.478134        -0.184284         0.891652
 H        -2.111695        -1.454815        -0.782200
 H        -2.993327         1.386181        -0.498560
 H        -2.604551         0.674633        -2.111043
 H        -3.924153        -0.104343        -1.004298
 H        -3.438374         0.347406         3.122043
 H        -5.011455        -0.496663         3.099679
 H        -3.512640        -1.347560         3.627938
