19
Iteration:  1900
 C         2.048526         0.289795         0.106320
 C         0.583505         0.095309         0.013272
 C        -0.599356        -0.216499        -0.278641
 C        -2.039451        -0.521745        -0.288226
 C        -2.845851         0.476599        -1.016390
 O        -2.468559        -0.418041         1.154660
 C        -3.536991        -1.133728         1.627338
 C        -3.975109        -0.709450         2.941825
 O        -4.129010        -2.027177         1.021324
 H         2.350301         0.147165        -0.848264
 H         2.370832         1.243495         0.364559
 H         2.681538        -0.540997         0.630611
 H        -2.214830        -1.593557        -0.521766
 H        -2.813886         1.417845        -0.363122
 H        -2.292459         0.678071        -1.865193
 H        -3.812729         0.085521        -1.197368
 H        -3.912813         0.373580         3.166404
 H        -4.982773        -1.100258         3.085020
 H        -3.540160        -1.294998         3.784186
