19
Iteration:  3825
 C         2.197787        -0.039048        -0.558667
 C         0.742948        -0.335776        -0.175183
 C        -0.450948        -0.488067         0.053260
 C        -1.974933        -0.603453         0.019989
 C        -2.610458         0.567743        -0.656898
 O        -2.507608        -0.538442         1.444851
 C        -3.773730        -0.893703         1.568926
 C        -4.160256        -0.433892         2.956541
 O        -4.409246        -1.563339         0.699519
 H         2.750290        -0.462468        -1.369396
 H         2.437623         1.021106        -0.595321
 H         2.814018        -0.348692         0.230720
 H        -2.154248        -1.658211        -0.267440
 H        -3.753154         0.319843        -0.832247
 H        -2.598694         1.287407         0.153875
 H        -2.058616         0.883950        -1.562819
 H        -5.202073        -0.653229         3.219034
 H        -3.463094        -1.038284         3.548938
 H        -3.864406         0.648199         2.990504
