19
Iteration:  3609charge 0 multiplicity 1
 C         2.120505        -0.076215         0.256626
 C         0.716339        -0.164732        -0.087427
 C        -0.510413        -0.218884        -0.242545
 C        -1.963575        -0.633165        -0.260128
 C        -2.930545         0.119150        -1.283091
 O        -2.419316        -0.504175         1.119390
 C        -3.676797        -0.852629         1.632451
 C        -3.667986        -0.686544         3.193699
 O        -4.585704        -1.191376         0.964959
 H         2.655046        -0.597207        -0.556592
 H         2.553893         1.006413         0.209963
 H         2.491757        -0.646165         1.160799
 H        -2.246627        -1.579200        -0.600779
 H        -3.977886        -0.302801        -1.116001
 H        -2.890859         1.124530        -1.132562
 H        -2.745710        -0.087749        -2.303562
 H        -4.456606        -0.024588         3.560677
 H        -3.794015        -1.607034         3.699837
 H        -2.677446        -0.317018         3.527520
