19
Iteration:  3493
 C         1.864580        -0.204823         0.185163
 C         0.514435        -0.428739         0.005521
 C        -0.653927        -0.480630        -0.395864
 C        -2.187308        -0.403472        -0.402830
 C        -2.475810         0.870993        -1.240912
 O        -2.690114        -0.159987         1.055822
 C        -3.604420        -1.052169         1.666122
 C        -3.803626        -0.360658         3.090992
 O        -3.992477        -2.121454         1.285612
 H         2.585532        -0.838930        -0.350776
 H         1.963137         0.815263        -0.085277
 H         2.043682        -0.372449         1.248002
 H        -2.466712        -1.434721        -0.572127
 H        -3.546726         0.999529        -1.451404
 H        -1.953292         1.748075        -0.806882
 H        -2.111854         0.571135        -2.270702
 H        -4.673220         0.319288         3.034591
 H        -4.002021        -1.155164         3.817587
 H        -2.878148         0.213019         3.396933
