19
Iteration:  3055
 C         1.841168        -0.548603         0.293797
 C         0.449988        -0.372437         0.163174
 C        -0.734646        -0.213021        -0.028477
 C        -2.180885        -0.155208        -0.282999
 C        -2.772381         0.749395        -1.340679
 O        -2.846791         0.151813         0.984283
 C        -3.396185        -1.016052         1.550860
 C        -3.817847        -0.682706         3.042851
 O        -3.533320        -2.091802         1.004812
 H         2.149284        -0.816543         1.361437
 H         2.152404        -1.469762        -0.218659
 H         2.283831         0.054242        -0.404352
 H        -2.460429        -1.180288        -0.507054
 H        -3.882636         0.739265        -1.020502
 H        -2.621520         1.813615        -1.206231
 H        -2.595622         0.330349        -2.275722
 H        -3.077352        -0.311368         3.688593
 H        -4.542850         0.103353         2.911374
 H        -4.091785        -1.683248         3.380982
