19
Iteration:   345
 C         1.615007        -0.206434         0.353610
 C         0.198224         0.011465         0.024151
 C        -1.028576         0.045248        -0.115121
 C        -2.499329        -0.064785        -0.341770
 C        -3.089551         1.001721        -1.149693
 O        -3.375706        -0.149100         0.884582
 C        -2.998741        -1.278776         1.568932
 C        -3.899999        -1.493816         2.872737
 O        -2.086830        -1.983847         1.227949
 H         2.263096         0.720254         0.375296
 H         1.693707        -0.478764         1.436109
 H         2.167521        -1.039454        -0.289154
 H        -2.585363        -1.037184        -0.809791
 H        -3.236203         1.884338        -0.381847
 H        -2.498157         1.387953        -1.966456
 H        -3.956120         0.555859        -1.727059
 H        -3.359302        -2.100034         3.600501
 H        -3.860079        -0.486323         3.320470
 H        -4.866296        -1.781934         2.405053
