19
Iteration:  3545charge 0 multiplicity 1
 C         1.812878        -0.063819         0.380681
 C         0.468051        -0.343599        -0.174309
 C        -0.671138        -0.712845        -0.357604
 C        -2.191039        -0.584481        -0.307441
 C        -2.720853         0.543701        -1.117422
 O        -2.401903        -0.173492         1.125494
 C        -3.523715        -0.849938         1.634412
 C        -3.663924        -0.511718         3.062515
 O        -4.116315        -1.671370         0.962792
 H         2.498468        -0.554176        -0.267980
 H         2.026779         1.002947         0.299898
 H         1.956842        -0.375328         1.448180
 H        -2.522841        -1.620227        -0.361712
 H        -3.885631         0.456058        -0.873992
 H        -2.458975         1.514452        -0.836563
 H        -2.542265         0.326441        -2.197182
 H        -4.487439         0.185463         3.293085
 H        -3.832801        -1.425360         3.594637
 H        -2.689000        -0.055680         3.346028
