19
Iteration:    57
 C         1.784821         0.599015         0.259912
 C         0.401462         0.423247        -0.064586
 C        -0.742849         0.082755        -0.165805
 C        -2.116565        -0.324054        -0.211786
 C        -3.127901         0.630906        -0.910336
 O        -2.631482        -0.279959         1.199876
 C        -3.310289        -1.451725         1.497376
 C        -3.804910        -1.321512         2.860703
 O        -3.467755        -2.443807         0.795437
 H         2.049277        -0.025711         1.055412
 H         2.487792         0.379969        -0.564828
 H         2.032690         1.583656         0.640152
 H        -2.276077        -1.374983        -0.451228
 H        -3.301872         1.479480        -0.288176
 H        -2.764223         1.189615        -1.857723
 H        -4.118107         0.219733        -1.144912
 H        -4.643573        -1.935897         3.087573
 H        -3.025649        -1.660052         3.558539
 H        -3.945653        -0.288572         3.161796
