19
Iteration:   826charge 0 multiplicity 1
 C         1.689968         1.079419        -0.208991
 C         0.590294         0.143139        -0.117948
 C        -0.507288        -0.311833         0.091432
 C        -1.884202        -0.757153        -0.036518
 C        -2.676976         0.315176        -0.890660
 O        -2.420915        -0.570245         1.361184
 C        -3.635735        -1.255273         1.568001
 C        -3.940611        -1.191808         2.984612
 O        -4.153695        -1.751525         0.596579
 H         1.339565         2.122288        -0.673093
 H         1.919916         1.221594         0.863192
 H         2.535918         0.715110        -0.724521
 H        -1.979974        -1.792489        -0.233632
 H        -2.697531         1.226518        -0.346556
 H        -2.144370         0.624568        -1.808540
 H        -3.691156         0.037613        -1.066008
 H        -3.030629        -0.967185         3.623805
 H        -4.618589        -0.400805         3.352613
 H        -4.166668        -2.249196         3.322425
