19
Iteration:  2816
 C         2.050125         0.222308        -0.439270
 C         0.741684        -0.233288         0.029028
 C        -0.451346        -0.309106         0.226352
 C        -1.807575        -0.637452         0.101564
 C        -2.510605         0.253283        -1.033235
 O        -2.528881        -0.581657         1.339629
 C        -3.846983        -0.919862         1.562227
 C        -3.954663        -0.799546         3.067816
 O        -4.615549        -1.250423         0.638949
 H         2.291707         1.356311        -0.428015
 H         2.871226        -0.157257         0.271534
 H         2.306927        -0.309188        -1.451010
 H        -1.662308        -1.708599        -0.124182
 H        -3.258400        -0.377626        -1.662216
 H        -3.013556         1.126677        -0.628213
 H        -1.778042         0.668138        -1.733329
 H        -4.815926        -1.513495         3.247775
 H        -3.088651        -1.197747         3.620316
 H        -4.314649         0.184364         3.382420
