19
Iteration:  1566charge 0 multiplicity 1
 C         2.044503         0.370228         0.058598
 C         0.511169         0.209423        -0.141819
 C        -0.597732        -0.333054        -0.290477
 C        -2.105641        -0.409628        -0.240005
 C        -2.777697         0.789103        -0.934988
 O        -2.573467        -0.382709         1.123485
 C        -3.453644        -1.311758         1.650397
 C        -3.990636        -0.877319         2.989993
 O        -3.976146        -2.268147         1.050061
 H         2.209454         0.970946         1.043964
 H         2.459693        -0.718168         0.199779
 H         2.673165         0.834268        -0.630757
 H        -2.526078        -1.271268        -0.736881
 H        -2.553560         1.771896        -0.488732
 H        -2.606878         0.854357        -2.025354
 H        -3.889384         0.781638        -0.825117
 H        -3.810382         0.151492         3.366978
 H        -5.074217        -0.883359         2.784347
 H        -3.751006        -1.679156         3.749974
