19
Iteration:   654charge 0 multiplicity 1
 C         1.914899         0.498438         0.197307
 C         0.456956         0.369324        -0.171466
 C        -0.709485         0.046319        -0.142737
 C        -2.123511        -0.374326        -0.125753
 C        -3.138180         0.351565        -1.028307
 O        -2.512399        -0.239641         1.301479
 C        -3.373717        -1.340054         1.519175
 C        -3.834513        -1.188173         2.997409
 O        -3.650778        -2.224802         0.719300
 H         2.501476        -0.245602        -0.120225
 H         2.227361         1.535762        -0.221529
 H         1.883182         0.563753         1.331506
 H        -2.202570        -1.460340        -0.443273
 H        -3.475121         1.210629        -0.415495
 H        -2.699733         0.643429        -2.029770
 H        -4.079166        -0.153528        -1.178301
 H        -4.853809        -1.367305         3.015065
 H        -3.417751        -1.763623         3.726674
 H        -3.669350        -0.228911         3.364241
