19
Iteration:  3698charge 0 multiplicity 1
 C         2.015572         0.274954        -0.352366
 C         0.768752        -0.328415        -0.045465
 C        -0.462930        -0.545462        -0.019801
 C        -2.015808        -0.787444         0.025622
 C        -2.566733         0.034822        -1.112961
 O        -2.382448        -0.555219         1.419648
 C        -3.694165        -0.737243         1.640629
 C        -4.027015        -0.828825         3.095375
 O        -4.541299        -0.854056         0.752586
 H         2.472181        -0.001855        -1.335055
 H         2.003514         1.415479        -0.358664
 H         2.785950        -0.082518         0.441099
 H        -2.211804        -1.838569         0.010389
 H        -3.503246        -0.397471        -1.305847
 H        -2.600356         1.037840        -0.878138
 H        -2.079317        -0.144923        -2.083742
 H        -5.079914        -0.617055         3.169397
 H        -3.880388        -1.891359         3.345179
 H        -3.452741        -0.233369         3.794104
