19
Iteration:  2385charge 0 multiplicity 1
 C         1.533960        -0.554489         0.472719
 C         0.236519        -0.488489        -0.175637
 C        -0.940367        -0.258780        -0.269871
 C        -2.410223        -0.027464        -0.306535
 C        -2.746115         1.129752        -1.186095
 O        -2.917434         0.138703         1.095172
 C        -3.041472        -1.071439         1.619130
 C        -4.025549        -0.985260         2.865268
 O        -2.778783        -2.162312         1.140030
 H         1.578511        -1.367755         1.117557
 H         2.395082        -0.579082        -0.241478
 H         1.640856         0.372850         1.065805
 H        -2.925511        -0.872941        -0.668658
 H        -1.995776         2.000102        -1.098748
 H        -2.600472         0.704106        -2.125491
 H        -3.662881         1.638397        -1.150037
 H        -5.014226        -0.757324         2.449979
 H        -4.026454        -1.837057         3.518589
 H        -3.607655        -0.185375         3.458519
