19
Iteration:   324charge 0 multiplicity 1
 C         1.493928        -0.114904         0.380756
 C         0.132132        -0.122891         0.046939
 C        -1.058857         0.084482        -0.043330
 C        -2.536496         0.014948        -0.430708
 C        -3.061385         1.139633        -1.252413
 O        -3.288927        -0.207621         0.820579
 C        -2.938031        -1.283112         1.624289
 C        -3.832581        -1.495385         2.847437
 O        -2.096986        -2.098734         1.362995
 H         2.157392         0.595177        -0.025429
 H         1.844306        -0.221770         1.440335
 H         1.922031        -1.130800        -0.177705
 H        -2.596384        -0.948734        -0.867380
 H        -2.976336         2.181488        -0.694902
 H        -2.483434         1.195432        -2.182842
 H        -4.096984         0.943701        -1.757412
 H        -3.476602        -2.374291         3.371074
 H        -3.681283        -0.754970         3.653216
 H        -4.894506        -1.588266         2.551645
