19
Iteration:  3275
 C         1.607917        -0.904502         0.260842
 C         0.200154        -0.589244        -0.078126
 C        -1.018467        -0.425893        -0.219446
 C        -2.380867        -0.177427        -0.524091
 C        -2.515000         1.403677        -1.085044
 O        -3.251969        -0.003974         0.709632
 C        -3.092226        -0.970354         1.709464
 C        -4.334654        -0.761498         2.660324
 O        -2.305934        -1.898275         1.848882
 H         1.602316        -2.018443         0.562146
 H         2.257042        -0.872696        -0.664408
 H         2.060813        -0.325394         1.015869
 H        -3.015348        -0.783999        -1.220659
 H        -3.519325         1.402465        -1.471713
 H        -2.277002         2.065764        -0.233345
 H        -1.810961         1.756447        -1.883745
 H        -4.639019         0.261738         2.402044
 H        -5.145416        -1.488954         2.467711
 H        -4.260104        -0.792716         3.735997
