19
Iteration:  2750charge 0 multiplicity 1
 C         2.064668         0.124948        -0.287882
 C         0.659574        -0.195345        -0.113909
 C        -0.529445        -0.369693         0.042934
 C        -1.950728        -0.612766         0.060397
 C        -2.543568         0.371341        -1.196801
 O        -2.500745        -0.309032         1.411571
 C        -3.678861        -0.878113         1.612251
 C        -4.200433        -0.918679         3.095197
 O        -4.272222        -1.478914         0.742732
 H         2.287842         1.124259        -0.678887
 H         2.602892         0.208375         0.704443
 H         2.577451        -0.738333        -0.793464
 H        -2.287677        -1.584887        -0.266535
 H        -3.604599         0.437240        -1.252588
 H        -2.286947         1.368937        -0.809749
 H        -1.874305         0.053017        -2.033139
 H        -5.199019        -0.403231         3.123412
 H        -4.254125        -1.960536         3.456253
 H        -3.559935        -0.482659         3.858156
