19
Iteration:   905
 C         1.974548         0.823873        -0.220469
 C         0.565040         0.454518        -0.171440
 C        -0.518126         0.001358         0.143271
 C        -1.852642        -0.486183        -0.007526
 C        -2.803436         0.257885        -0.922863
 O        -2.359773        -0.703786         1.420483
 C        -3.629206        -1.333157         1.508587
 C        -4.033823        -1.179019         2.925530
 O        -4.274252        -1.919513         0.700271
 H         2.033733         1.903012         0.103677
 H         2.603991         0.029556         0.411775
 H         2.230126         0.712055        -1.174077
 H        -1.725359        -1.498670        -0.345117
 H        -2.662771         1.344656        -0.798167
 H        -2.590990        -0.041507        -1.862675
 H        -3.851946        -0.067036        -0.838612
 H        -4.034566        -0.104814         2.888956
 H        -4.983933        -1.646480         3.176745
 H        -3.405921        -1.474349         3.766708
