19
Iteration:   733
 C         1.947881         0.846294        -0.010571
 C         0.541433         0.418699        -0.058175
 C        -0.604864        -0.034377        -0.034659
 C        -1.944393        -0.547232        -0.101594
 C        -2.844036         0.326227        -1.017021
 O        -2.460789        -0.497149         1.287001
 C        -3.575051        -1.393860         1.498231
 C        -3.787392        -1.157868         2.994100
 O        -4.245177        -2.075710         0.782294
 H         2.350577         0.823036        -0.966805
 H         1.954554         1.809677         0.462739
 H         2.516380         0.050491         0.659716
 H        -1.899333        -1.571784        -0.555938
 H        -2.586591         1.446458        -0.816734
 H        -2.621213         0.158793        -2.042555
 H        -3.919727         0.036736        -0.802560
 H        -3.767380        -2.072773         3.581646
 H        -2.888414        -0.663271         3.254108
 H        -4.756608        -0.691726         3.191020
