19
Iteration:  2588charge 0 multiplicity 1
 C         1.916112        -0.121955         0.206214
 C         0.518189        -0.313326        -0.001526
 C        -0.666432        -0.360860        -0.201037
 C        -2.160791        -0.285342        -0.275330
 C        -2.804571         0.844090        -1.090650
 O        -2.638877        -0.119229         1.118340
 C        -3.471342        -1.091080         1.611035
 C        -3.970265        -0.758986         3.010882
 O        -3.707778        -2.071211         0.952093
 H         2.720544        -0.387304        -0.642586
 H         2.062635         0.825265         0.672770
 H         2.143732        -0.798555         0.985901
 H        -2.501193        -1.235512        -0.744240
 H        -2.148854         1.677680        -1.385734
 H        -3.006238         0.495586        -2.112200
 H        -3.791304         1.174519        -0.702371
 H        -3.087963        -0.698975         3.676480
 H        -4.538729         0.216979         3.012987
 H        -4.732998        -1.515954         3.313357
