19
Iteration:  3967
 C         1.834829        -0.737410         0.099590
 C         0.363073        -0.435582        -0.046804
 C        -0.854505        -0.232911        -0.192039
 C        -2.301272        -0.136343        -0.257075
 C        -2.534005         1.140142        -1.165481
 O        -2.792470         0.102029         1.098756
 C        -3.403383        -0.980265         1.643403
 C        -3.669049        -0.925354         3.081768
 O        -3.721482        -2.004369         1.064555
 H         1.988125        -1.619013        -0.616007
 H         2.500281         0.157251        -0.131206
 H         2.015281        -1.111213         1.137753
 H        -2.874210        -0.868272        -0.793315
 H        -3.539826         1.097327        -1.618420
 H        -2.492419         2.080981        -0.732601
 H        -1.656056         1.140365        -1.810815
 H        -3.067815        -1.780461         3.485807
 H        -3.262601        -0.041838         3.624978
 H        -4.726744        -1.249838         3.200563
