19
Iteration:  2022
 C         1.804453        -0.126295         0.048248
 C         0.414662         0.015647         0.089753
 C        -0.806625        -0.213830         0.012743
 C        -2.235622        -0.260651        -0.230066
 C        -2.626828         0.775888        -1.213364
 O        -2.879003        -0.096470         0.994364
 C        -3.354055        -1.182168         1.622036
 C        -3.903771        -0.835107         2.989234
 O        -3.472121        -2.207873         1.069890
 H         2.390022         0.452605        -0.588302
 H         2.241380        -0.077303         1.028763
 H         1.895416        -1.259480        -0.279842
 H        -2.421074        -1.372874        -0.529696
 H        -2.277162         1.707389        -0.782281
 H        -2.014815         0.645509        -2.197140
 H        -3.688525         0.710966        -1.458021
 H        -4.868845        -1.388439         3.240259
 H        -3.221067        -1.183583         3.822994
 H        -4.026274         0.217544         3.212716
