19
Iteration:  4582charge 0 multiplicity 1
 C         1.889420        -0.070146        -0.103327
 C         0.519711        -0.633395        -0.384890
 C        -0.606614        -0.999557        -0.240536
 C        -2.035019        -0.589536        -0.168638
 C        -2.362637         0.611843        -0.909551
 O        -2.445352        -0.322688         1.199261
 C        -3.678029        -0.729952         1.687324
 C        -3.578634        -0.801595         3.168268
 O        -4.673605        -0.978328         1.004545
 H         2.059020         0.843459         0.475975
 H         2.438955        -1.002367         0.259964
 H         2.156642         0.117326        -1.154028
 H        -2.649870        -1.355875        -0.513983
 H        -3.497572         0.798619        -0.965963
 H        -1.799835         1.465915        -0.437492
 H        -1.974400         0.627705        -1.973289
 H        -2.547638        -1.033852         3.508935
 H        -3.891670         0.140281         3.672098
 H        -4.296471        -1.561482         3.598634
