19
Iteration:  4064
 C         1.453311        -0.973590         0.483701
 C        -0.007686        -0.775718         0.146701
 C        -1.082002        -0.464815        -0.308371
 C        -2.546649         0.135000        -0.529875
 C        -2.461154         1.647619        -0.977103
 O        -3.150948         0.075159         0.733227
 C        -3.074838        -1.099048         1.583003
 C        -3.268568        -0.694722         3.041553
 O        -3.027716        -2.201420         1.122952
 H         1.669460        -2.069925         0.121699
 H         2.157864        -0.168866         0.129029
 H         1.544886        -0.990719         1.582292
 H        -3.220931        -0.577343        -1.281311
 H        -3.466493         2.085798        -0.659173
 H        -1.630462         2.230958        -0.674255
 H        -2.458596         1.713960        -2.092384
 H        -2.678732         0.210203         3.312522
 H        -4.347224        -0.472852         3.287052
 H        -2.964106        -1.583999         3.604687
