19
Iteration:  3433
 C         1.880423        -0.556142        -0.087728
 C         0.452331        -0.472474         0.054468
 C        -0.751025        -0.303652         0.035404
 C        -2.165386        -0.274920        -0.164994
 C        -2.505784         0.821968        -1.218547
 O        -2.999820         0.077031         0.957972
 C        -3.555838        -1.014495         1.598349
 C        -4.077708        -0.433542         2.969808
 O        -3.336343        -2.143671         1.269965
 H         2.237955        -1.412493        -0.544609
 H         2.413926         0.301477        -0.443671
 H         2.214539        -0.420397         0.916979
 H        -2.653320        -1.128148        -0.601524
 H        -3.562712         0.735738        -1.573439
 H        -2.298471         1.900413        -0.997994
 H        -1.846461         0.606339        -2.049813
 H        -4.911405         0.235424         2.828701
 H        -4.378786        -1.373182         3.468081
 H        -3.262571         0.080791         3.439367
