19
Iteration:  4205charge 0 multiplicity 1
 C         1.216165        -1.624389         0.301487
 C         0.236749        -0.583865        -0.064319
 C        -0.862419         0.009786        -0.178785
 C        -2.344805         0.181046        -0.400436
 C        -2.901730         1.371733        -1.117814
 O        -3.001141         0.245269         1.007089
 C        -3.118728        -1.006572         1.576798
 C        -3.856521        -0.836348         2.886390
 O        -2.429479        -1.921610         1.269533
 H         0.578143        -2.509432         0.142346
 H         1.997442        -1.759225        -0.435460
 H         1.641061        -1.547643         1.262594
 H        -2.644361        -0.711258        -0.892294
 H        -4.058326         1.439624        -0.915867
 H        -2.278760         2.158064        -0.748025
 H        -2.834810         1.543014        -2.276362
 H        -4.819778        -0.291203         2.800832
 H        -3.962340        -1.764420         3.454993
 H        -3.216179        -0.184139         3.462419
