19
Iteration:  1803charge 0 multiplicity 1
 C         1.918382         0.564490        -0.098661
 C         0.507704         0.184845        -0.185862
 C        -0.530925        -0.412347        -0.131509
 C        -1.956179        -0.717442        -0.072493
 C        -2.681952         0.263162        -0.992684
 O        -2.289425        -0.582178         1.381594
 C        -3.565381        -1.087442         1.652888
 C        -4.119013        -0.879231         3.042607
 O        -4.260876        -1.576000         0.734083
 H         2.607711        -0.265359        -0.487487
 H         2.138195         1.396612        -0.690181
 H         2.355477         0.706839         0.971609
 H        -2.267224        -1.655989        -0.607687
 H        -2.488875         1.279696        -0.494357
 H        -2.121990         0.186230        -1.877928
 H        -3.701140        -0.026256        -1.034122
 H        -3.531801        -1.503148         3.719325
 H        -3.970358         0.139542         3.363085
 H        -5.190865        -1.058169         3.033756
