19
Iteration:  1425charge 0 multiplicity 1
 C         1.796536        -0.223999         0.141591
 C         0.316429        -0.154133        -0.060905
 C        -0.884346         0.115406         0.116388
 C        -2.319402        -0.017433        -0.264483
 C        -2.873972         1.024502        -1.277688
 O        -3.088512        -0.120483         0.991108
 C        -3.265754        -1.385179         1.611685
 C        -3.941515        -0.981077         2.934824
 O        -2.846867        -2.380217         1.162269
 H         2.173199         0.679516        -0.144043
 H         1.988561        -0.454310         1.263669
 H         2.355481        -0.966636        -0.464311
 H        -2.336168        -1.040634        -0.685924
 H        -2.574570         2.046687        -0.987996
 H        -2.469603         0.648255        -2.150087
 H        -3.960514         1.007893        -1.307290
 H        -3.593861        -1.635976         3.748860
 H        -3.592103        -0.018554         3.310068
 H        -5.048753        -1.135137         2.868041
