19
Iteration:  4026
 C         1.589914        -0.815402         0.300007
 C         0.126394        -0.718919         0.115510
 C        -1.022567        -0.406901        -0.225711
 C        -2.452419        -0.039197        -0.376509
 C        -2.449097         1.429808        -0.986084
 O        -3.072901         0.163347         0.878449
 C        -3.294040        -1.076853         1.522240
 C        -3.299322        -0.727974         2.978844
 O        -3.328780        -2.178959         1.089878
 H         2.162313        -1.602784        -0.048698
 H         2.084931         0.079382        -0.014575
 H         1.720823        -0.859152         1.387550
 H        -2.960240        -0.664990        -1.098381
 H        -3.411335         1.972765        -0.931084
 H        -1.644547         1.930363        -0.309436
 H        -2.223597         1.411507        -2.073203
 H        -2.246543        -0.519630         3.201934
 H        -3.968211         0.062451         3.254188
 H        -3.589651        -1.638034         3.508085
