19
Iteration:  1030charge 0 multiplicity 1
 C         1.954289         0.460516         0.054699
 C         0.510044         0.226685        -0.084390
 C        -0.672843        -0.082180         0.007921
 C        -2.106263        -0.317947        -0.211126
 C        -2.890568         0.729541        -1.065762
 O        -2.804179        -0.247647         1.131656
 C        -3.457814        -1.372862         1.584488
 C        -3.858964        -1.112827         2.976460
 O        -3.656352        -2.423220         0.957310
 H         2.205755         0.253824         1.052330
 H         2.477531        -0.335693        -0.560853
 H         2.180238         1.597443        -0.300739
 H        -2.203936        -1.473946        -0.452063
 H        -2.710496         1.785348        -0.728958
 H        -2.450229         0.679493        -2.174694
 H        -3.965087         0.629435        -0.837310
 H        -4.828506        -1.611110         3.103254
 H        -3.143401        -1.515985         3.674153
 H        -4.028584         0.002173         2.972882
