19
Iteration:  3942
 C         1.922238        -0.687769         0.022713
 C         0.487004        -0.510180        -0.032750
 C        -0.682962        -0.203076        -0.138151
 C        -2.112579        -0.058848        -0.261349
 C        -2.765274         1.018834        -1.137116
 O        -2.700622         0.029885         1.183190
 C        -3.477246        -1.022469         1.681214
 C        -3.819532        -0.851900         3.165856
 O        -3.834598        -1.964836         0.897496
 H         2.017776        -1.419061        -0.892141
 H         2.321085         0.277683        -0.352959
 H         2.439980        -1.066360         0.928821
 H        -2.551652        -0.919994        -0.812265
 H        -3.847576         0.929368        -1.183154
 H        -2.602310         2.022170        -0.725417
 H        -2.206242         1.071319        -2.036180
 H        -3.652704        -1.747123         3.763629
 H        -3.163737        -0.072016         3.542158
 H        -4.914806        -0.661477         3.192595
