19
Iteration:  1582
 C         1.874852         0.314138         0.062087
 C         0.513130         0.218760        -0.199050
 C        -0.592795        -0.226547        -0.192691
 C        -2.011368        -0.451751        -0.222409
 C        -2.786408         0.697395        -0.911109
 O        -2.495580        -0.428426         1.246077
 C        -3.555524        -1.270903         1.571891
 C        -3.999314        -0.830383         3.011528
 O        -3.931582        -2.193278         0.914550
 H         2.103724         0.745489         1.002106
 H         2.355227        -0.627468        -0.058807
 H         2.338575         0.971784        -0.806195
 H        -2.217958        -1.523498        -0.530075
 H        -2.604066         1.628923        -0.340130
 H        -2.535180         0.711530        -1.985992
 H        -3.888407         0.573225        -0.864155
 H        -3.574783         0.172963         3.029943
 H        -5.083624        -0.977194         3.163550
 H        -3.469147        -1.489274         3.692847
