19
Iteration:  2427charge 0 multiplicity 1
 C         1.806610        -0.586084         0.346413
 C         0.322646        -0.283148         0.074432
 C        -0.868717        -0.190937        -0.234887
 C        -2.359029        -0.115065        -0.463601
 C        -2.757310         1.191252        -1.089224
 O        -3.030895        -0.009002         0.862221
 C        -3.257793        -1.155559         1.647871
 C        -3.860802        -0.787317         2.962997
 O        -3.056610        -2.277107         1.186480
 H         1.938928        -1.572791         0.571942
 H         2.439224        -0.218908        -0.484081
 H         2.107213         0.022777         1.283735
 H        -2.691091        -0.932408        -1.050852
 H        -2.362578         2.094692        -0.482713
 H        -2.402873         1.143914        -2.093512
 H        -3.859995         1.200758        -1.021158
 H        -4.828084        -1.265680         2.813486
 H        -3.474255        -1.373963         3.794327
 H        -3.865016         0.260194         3.273888
