19
Iteration:  1636charge 0 multiplicity 1
 C         2.124837         0.436230        -0.143334
 C         0.714762         0.045756        -0.011172
 C        -0.513585        -0.110873        -0.139591
 C        -1.954484        -0.405935        -0.129006
 C        -3.002414         0.311689        -0.935168
 O        -2.435344        -0.435454         1.329733
 C        -3.566572        -1.155197         1.579324
 C        -4.106920        -1.043120         3.060312
 O        -4.137342        -1.789683         0.763209
 H         2.647084         0.459036         0.761419
 H         2.641890        -0.271954        -0.782847
 H         2.358803         1.511456        -0.632293
 H        -2.044443        -1.532450        -0.304320
 H        -3.398709         1.309588        -0.626439
 H        -2.807513         0.345115        -2.014142
 H        -3.879638        -0.336217        -0.916535
 H        -4.738632        -0.106055         3.191699
 H        -4.826457        -1.895536         3.069547
 H        -3.233459        -1.156667         3.711497
