19
Iteration:  1602charge 0 multiplicity 1
 C         1.958769         0.366599        -0.016396
 C         0.510338         0.087851        -0.176229
 C        -0.704073        -0.054380        -0.086491
 C        -2.103457        -0.513032        -0.051303
 C        -2.856623         0.527800        -0.894578
 O        -2.438329        -0.485732         1.286297
 C        -3.507466        -1.209615         1.540658
 C        -3.955751        -0.816238         2.938015
 O        -3.940583        -2.034672         0.773052
 H         2.123067         0.508763         0.973067
 H         2.520912        -0.594014        -0.201137
 H         2.409467         1.226775        -0.713920
 H        -2.219143        -1.591562        -0.465488
 H        -2.727137         1.438602        -0.367836
 H        -2.310537         0.476749        -1.909811
 H        -3.859280         0.259856        -1.002333
 H        -3.804060         0.271409         3.192660
 H        -4.950996        -1.322367         3.136913
 H        -3.322264        -1.360199         3.678647
