19
Iteration:  4753
 C         2.026477        -0.647777        -0.486038
 C         0.679198        -0.432104        -0.049437
 C        -0.554763        -0.330953        -0.135604
 C        -2.040329        -0.393519        -0.000851
 C        -2.750359         0.630554        -0.926299
 O        -2.350331        -0.320307         1.352387
 C        -3.629564        -0.817080         1.638513
 C        -3.842604        -0.622383         3.137441
 O        -4.456973        -1.327149         0.844772
 H         2.391693         0.269618        -0.945075
 H         2.696643        -1.035756         0.276377
 H         1.818909        -1.493755        -1.135247
 H        -2.204849        -1.420155        -0.440590
 H        -3.786548         0.149957        -1.140945
 H        -2.973278         1.645769        -0.414303
 H        -2.185664         0.816389        -1.839743
 H        -3.039594        -1.046026         3.761132
 H        -3.804911         0.460350         3.275038
 H        -4.762341        -0.946149         3.641649
