19
Iteration:  3931charge 0 multiplicity 1
 C         2.033366        -0.664869        -0.077959
 C         0.499471        -0.512263        -0.012676
 C        -0.668311        -0.164035        -0.080068
 C        -2.175137        -0.135081        -0.211986
 C        -2.815479         1.027762        -1.032938
 O        -2.660517        -0.047563         1.191005
 C        -3.471710        -1.026753         1.598428
 C        -3.857018        -0.792377         3.076385
 O        -3.865416        -1.898393         0.893626
 H         2.404493        -1.471488        -0.829558
 H         2.591341         0.276851        -0.252792
 H         2.340489        -1.050261         0.922052
 H        -2.465102        -1.158354        -0.471443
 H        -3.856914         0.722059        -1.046241
 H        -2.693296         2.070795        -0.793114
 H        -2.637684         0.814404        -2.043360
 H        -3.825238        -1.755223         3.585536
 H        -3.217907        -0.068709         3.575956
 H        -4.870729        -0.360361         3.206760
