19
Iteration:  1403
 C         1.713885        -0.324518         0.159847
 C         0.298202        -0.074319         0.136542
 C        -0.882650         0.056065        -0.048027
 C        -2.294751        -0.138757        -0.316296
 C        -2.988747         0.997878        -1.076394
 O        -3.100922        -0.080976         0.889613
 C        -3.162376        -1.245129         1.559777
 C        -3.916138        -0.996743         2.826423
 O        -2.727118        -2.297374         1.209655
 H         2.189899         0.465901        -0.263878
 H         1.922275        -0.394508         1.305403
 H         2.061283        -1.266345        -0.346371
 H        -2.388132        -1.153179        -0.749567
 H        -2.878618         1.928893        -0.474213
 H        -2.690875         1.023284        -2.063606
 H        -4.049131         0.722696        -0.986128
 H        -3.889977        -1.891082         3.466441
 H        -3.356602        -0.244643         3.411998
 H        -4.960740        -0.767366         2.527692
