19
Iteration:  3295
 C         1.647365        -0.953501         0.160550
 C         0.217413        -0.630949         0.024328
 C        -0.875492        -0.304876        -0.352572
 C        -2.318964         0.021930        -0.476641
 C        -2.634936         1.322203        -1.133782
 O        -3.123819        -0.087238         0.792922
 C        -3.182081        -0.996440         1.745860
 C        -4.407526        -0.729018         2.640353
 O        -2.419749        -1.915248         1.883847
 H         1.780892        -2.059458         0.376162
 H         2.326121        -0.685160        -0.633171
 H         1.968070        -0.251975         0.893918
 H        -2.616058        -0.736562        -1.225776
 H        -3.642116         1.389577        -1.547487
 H        -2.336381         2.022751        -0.494875
 H        -1.920406         1.451109        -1.847225
 H        -4.942933         0.206107         2.427629
 H        -5.102206        -1.615967         2.554194
 H        -4.238366        -0.767224         3.709644
