19
Iteration:  1454
 C         1.824496        -0.085377         0.092186
 C         0.351321        -0.004955         0.017223
 C        -0.875486        -0.069737        -0.092067
 C        -2.323833        -0.123686        -0.308995
 C        -2.661284         0.950160        -1.271936
 O        -3.054045         0.006588         1.033391
 C        -3.315858        -1.227886         1.689888
 C        -3.949229        -1.173147         3.030823
 O        -3.109557        -2.389101         1.181770
 H         2.323638         1.024522        -0.088005
 H         2.219402        -0.550348         1.029138
 H         2.110156        -0.607743        -0.778390
 H        -2.493632        -1.121837        -0.656157
 H        -2.222009         1.912420        -0.851477
 H        -2.074929         0.655456        -2.181086
 H        -3.807936         0.929797        -1.455962
 H        -3.188995        -1.697522         3.691234
 H        -4.152632        -0.099238         3.313189
 H        -4.795905        -1.847322         2.975580
