19
Iteration:  3087
 C         1.736994        -0.760633         0.377400
 C         0.360583        -0.357604         0.090829
 C        -0.814240        -0.113632        -0.139229
 C        -2.316164        -0.150871        -0.332832
 C        -2.819718         0.862194        -1.330863
 O        -2.824981         0.174357         1.031936
 C        -3.318446        -1.064106         1.615981
 C        -3.929511        -0.633346         2.953481
 O        -3.133456        -2.138534         1.094663
 H         1.994407        -1.025897         1.457262
 H         1.843851        -1.613532        -0.257466
 H         2.443253        -0.030868         0.120230
 H        -2.482324        -1.129069        -0.747837
 H        -3.991118         0.776313        -1.424338
 H        -2.405242         1.843426        -1.135716
 H        -2.552129         0.681966        -2.340115
 H        -3.200152        -0.086534         3.517528
 H        -4.897635        -0.159259         2.814549
 H        -4.297498        -1.538852         3.474494
