19
Iteration:  2178
 C         1.738088        -0.492037         0.377997
 C         0.241371        -0.461796        -0.167707
 C        -0.953573        -0.274557        -0.314846
 C        -2.372560        -0.068974        -0.459490
 C        -2.609860         1.218673        -1.198671
 O        -3.210567         0.079570         0.969477
 C        -3.265457        -1.094065         1.621497
 C        -4.063603        -1.025197         2.968258
 O        -2.629062        -2.108362         1.382813
 H         1.874492         0.270888         1.178478
 H         1.786393        -1.505508         0.859674
 H         2.530627        -0.405200        -0.296648
 H        -2.846560        -1.004407        -0.936252
 H        -2.010169         2.032925        -0.768852
 H        -2.352117         0.961109        -2.175788
 H        -3.667460         1.553373        -1.029824
 H        -3.459294        -0.593681         3.728138
 H        -5.102639        -0.703211         2.921959
 H        -3.978152        -2.101794         3.273761
