19
Iteration:  4716charge 0 multiplicity 1
 C         2.153593        -0.537223        -0.305271
 C         0.669073        -0.401589        -0.212479
 C        -0.532409        -0.287832        -0.164975
 C        -2.004726        -0.538230        -0.195904
 C        -2.833829         0.635197        -0.904619
 O        -2.296356        -0.648442         1.176054
 C        -3.632571        -0.805034         1.722352
 C        -3.876315        -0.580947         3.267099
 O        -4.587379        -1.112100         0.976650
 H         2.793190         0.251282        -0.579270
 H         2.616766        -1.081589         0.497825
 H         2.298161        -1.129819        -1.207981
 H        -2.300230        -1.430578        -0.614375
 H        -3.831600         0.458613        -1.169124
 H        -2.739393         1.483464        -0.284431
 H        -2.274116         0.832753        -1.878210
 H        -2.970799        -0.664643         3.879264
 H        -4.138037         0.507175         3.281383
 H        -4.743180        -1.194403         3.479533
