19
Iteration:  2680charge 0 multiplicity 1
 C         2.046821        -0.087107         0.002219
 C         0.652271        -0.088814         0.009379
 C        -0.530199        -0.252424        -0.174796
 C        -2.005930        -0.449964        -0.159494
 C        -2.893134         0.627644        -0.912836
 O        -2.424113        -0.405672         1.186625
 C        -3.596401        -1.039808         1.555258
 C        -4.047096        -0.573003         2.945519
 O        -4.128853        -1.940900         0.878737
 H         2.395051         0.509668        -0.851448
 H         2.385626         0.401799         0.996944
 H         2.379707        -1.210302         0.008386
 H        -2.119542        -1.501908        -0.551311
 H        -3.457683         1.256800        -0.192031
 H        -2.214942         1.413200        -1.330161
 H        -3.458582         0.158573        -1.694171
 H        -4.046684         0.488621         2.878300
 H        -5.089774        -0.935148         3.021015
 H        -3.541583        -1.018234         3.801879
