19
Iteration:   232charge 0 multiplicity 1
 C         1.571017         0.175407         0.473564
 C         0.204694        -0.025973        -0.035426
 C        -0.988621        -0.036897        -0.284020
 C        -2.475130        -0.141826        -0.424985
 C        -2.999959         1.209529        -1.056625
 O        -3.299057        -0.348589         0.825942
 C        -3.058267        -1.427083         1.566248
 C        -3.699348        -1.225502         2.882874
 O        -2.385454        -2.374637         1.300313
 H         2.378552         0.132717        -0.473968
 H         1.636320         1.196175         0.884084
 H         1.867582        -0.496422         1.269221
 H        -2.790064        -0.983734        -1.072202
 H        -2.885090         1.874572        -0.269825
 H        -2.316154         1.555498        -1.849661
 H        -3.974060         1.315612        -1.393884
 H        -4.365857        -2.073256         3.129589
 H        -2.957244        -1.267311         3.680514
 H        -4.374298        -0.372750         2.928320
