19
Iteration:  2826charge 0 multiplicity 1
 C         2.050040         0.206823        -0.387065
 C         0.794651        -0.194333         0.002445
 C        -0.419987        -0.266622         0.181815
 C        -1.859104        -0.645610         0.059146
 C        -2.500596         0.256013        -1.065660
 O        -2.465911        -0.644267         1.384218
 C        -3.799248        -0.939376         1.543739
 C        -4.073077        -0.826827         3.045833
 O        -4.613607        -1.206699         0.695671
 H         2.112279         1.333493        -0.418427
 H         2.900590        -0.281752         0.248351
 H         2.231362        -0.199396        -1.507281
 H        -2.018413        -1.699794        -0.273054
 H        -3.341282        -0.376523        -1.473613
 H        -3.066936         1.073893        -0.605952
 H        -1.732549         0.517646        -1.814067
 H        -4.796325        -1.534763         3.533140
 H        -3.085238        -0.815046         3.494616
 H        -4.362398         0.189984         3.302684
