19
Iteration:  2031charge 0 multiplicity 1
 C         1.814986        -0.220078         0.100669
 C         0.370491         0.079633         0.001118
 C        -0.820939        -0.138296        -0.011149
 C        -2.226126        -0.347261        -0.247338
 C        -2.607527         0.817972        -1.240681
 O        -2.903377        -0.076449         1.052044
 C        -3.370703        -1.171059         1.647317
 C        -3.912210        -0.791162         3.019625
 O        -3.418200        -2.283433         1.046471
 H         2.313803         0.488394        -0.478778
 H         2.255463        -0.183848         1.076948
 H         2.036707        -1.319431        -0.330515
 H        -2.564324        -1.367343        -0.506378
 H        -2.397464         1.728452        -0.580698
 H        -1.880751         0.742224        -2.072161
 H        -3.631478         0.861094        -1.550049
 H        -4.748795        -1.518114         3.246635
 H        -3.126070        -1.025634         3.762974
 H        -4.189857         0.257685         2.941797
