19
Iteration:   221charge 0 multiplicity 1
 C         1.501959         0.255450         0.416008
 C         0.141896        -0.065055         0.070500
 C        -0.997140        -0.034210        -0.310369
 C        -2.433215        -0.089787        -0.483463
 C        -2.929026         1.236016        -1.086889
 O        -3.266306        -0.313869         0.852606
 C        -3.053503        -1.449317         1.625952
 C        -3.724093        -1.265043         2.947688
 O        -2.428789        -2.438812         1.262803
 H         2.317721        -0.100854        -0.510045
 H         1.720830         1.300408         0.696895
 H         1.827169        -0.443287         1.201043
 H        -2.544248        -1.036426        -1.051427
 H        -2.993118         2.009250        -0.400794
 H        -2.155763         1.508893        -1.837801
 H        -3.818835         1.047065        -1.568382
 H        -4.372088        -2.145153         3.094804
 H        -2.894880        -1.253144         3.669613
 H        -4.133009        -0.257837         3.021757
