19
Iteration:  3743charge 0 multiplicity 1
 C         1.984572         0.397760        -0.493829
 C         0.637333        -0.313134        -0.251578
 C        -0.401586        -0.846143         0.107616
 C        -1.848038        -0.853977         0.188466
 C        -2.346099         0.269920        -0.905579
 O        -2.453612        -0.587068         1.491680
 C        -3.806955        -0.815908         1.576007
 C        -4.156073        -0.708503         3.053261
 O        -4.540077        -0.984366         0.692166
 H         2.195161         0.118166        -1.616860
 H         1.882656         1.508839        -0.615626
 H         2.799257         0.076895         0.264006
 H        -2.226409        -1.771999        -0.203613
 H        -3.339440         0.327117        -0.911764
 H        -1.637627         1.090019        -0.747387
 H        -2.059865        -0.073750        -1.923423
 H        -5.222038        -0.526557         3.022156
 H        -3.751479        -1.665233         3.467349
 H        -3.618087         0.169160         3.363215
