19
Iteration:  2529charge 0 multiplicity 1
 C         1.924181        -0.263533         0.098668
 C         0.397254        -0.243616         0.073313
 C        -0.825444        -0.341581         0.052220
 C        -2.234314        -0.200635        -0.366026
 C        -2.502803         0.904966        -1.257800
 O        -3.009760         0.065341         1.011881
 C        -3.496495        -1.050798         1.587875
 C        -3.803032        -0.935816         3.115160
 O        -3.509506        -2.158426         1.052496
 H         2.396269        -0.946185        -0.644387
 H         2.393866         0.760542        -0.142894
 H         2.121033        -0.550040         1.180243
 H        -2.630109        -1.160126        -0.664047
 H        -2.268590         1.895976        -0.808396
 H        -2.056117         0.687868        -2.294679
 H        -3.594472         0.906182        -1.451677
 H        -3.428167        -1.843125         3.622658
 H        -3.333039        -0.035787         3.563027
 H        -4.914212        -0.987932         3.288465
