19
Iteration:  2943charge 0 multiplicity 1
 C         1.990274         0.176813         0.014111
 C         0.639127        -0.408427         0.071656
 C        -0.549645        -0.589411        -0.201587
 C        -2.051174        -0.542287        -0.229927
 C        -2.576901         0.607835        -1.008717
 O        -2.427307        -0.385033         1.172957
 C        -3.595611        -1.012757         1.599550
 C        -3.919144        -0.654098         3.029672
 O        -4.435135        -1.604802         0.882642
 H         2.055048         1.078334         0.935417
 H         2.839114        -0.515144         0.262198
 H         2.267958         0.678098        -0.925279
 H        -2.661550        -1.421566        -0.483360
 H        -3.687473         0.697140        -1.002133
 H        -2.123067         1.566042        -0.744015
 H        -2.292805         0.391831        -2.087680
 H        -3.307395        -1.391654         3.606335
 H        -3.716198         0.368760         3.311117
 H        -4.930684        -0.892038         3.256469
