19
Iteration:  3562
 C         1.864598        -0.048729         0.323390
 C         0.451819        -0.335794        -0.030080
 C        -0.662371        -0.566571        -0.462970
 C        -2.084345        -0.619283        -0.217427
 C        -2.847138         0.389146        -1.156165
 O        -2.398606        -0.256627         1.150253
 C        -3.472255        -0.846756         1.632194
 C        -3.630970        -0.537893         3.153853
 O        -4.212761        -1.510741         0.864635
 H         2.682650        -0.625645        -0.223411
 H         2.031327         1.077550         0.310208
 H         1.952350        -0.520984         1.317637
 H        -2.554784        -1.611001        -0.470719
 H        -3.887294         0.381309        -1.175351
 H        -2.258595         1.320668        -0.846212
 H        -2.612198         0.183061        -2.195711
 H        -4.510993         0.120370         3.168105
 H        -3.854075        -1.484770         3.702016
 H        -2.746428        -0.101494         3.569629
