19
Iteration:  1778
 C         1.909763         0.644150        -0.203955
 C         0.631454        -0.060762        -0.185951
 C        -0.509316        -0.349097         0.026638
 C        -1.923474        -0.686255         0.040569
 C        -2.616248         0.242551        -1.006635
 O        -2.447862        -0.518051         1.385867
 C        -3.690906        -1.040782         1.588386
 C        -3.966282        -0.960279         3.029033
 O        -4.330159        -1.572127         0.687681
 H         2.797801         0.154708        -0.342054
 H         1.763222         1.391011        -0.994303
 H         2.068083         1.265429         0.796774
 H        -2.071146        -1.712773        -0.364488
 H        -2.454797         1.240127        -0.579599
 H        -2.042565         0.085881        -1.879268
 H        -3.719132         0.037047        -1.138154
 H        -3.744424        -1.965652         3.429539
 H        -3.256947        -0.233752         3.499615
 H        -5.022517        -0.633940         3.257306
