19
Iteration:  4620charge 0 multiplicity 1
 C         1.714777        -0.071776        -0.117385
 C         0.474366        -0.742878        -0.111402
 C        -0.733453        -0.875397        -0.381920
 C        -2.117961        -0.561540        -0.219652
 C        -2.389109         0.720901        -0.952994
 O        -2.302122        -0.619471         1.268348
 C        -3.510869        -0.774323         1.688356
 C        -3.647418        -0.730238         3.222745
 O        -4.488658        -0.897969         0.923607
 H         1.672729         1.040161         0.022936
 H         2.558798        -0.498938         0.404018
 H         2.015206        -0.016501        -1.242111
 H        -2.775532        -1.426842        -0.697170
 H        -3.435983         0.931417        -0.848763
 H        -1.844318         1.580852        -0.515207
 H        -2.112114         0.486060        -2.096148
 H        -2.648661        -0.632489         3.694092
 H        -3.988191         0.312833         3.394625
 H        -4.389686        -1.411623         3.600173
