19
Iteration:  2678
 C         2.036090        -0.109180         0.021237
 C         0.633130        -0.081002         0.008390
 C        -0.547668        -0.246350        -0.177625
 C        -1.994232        -0.444180        -0.168152
 C        -2.888114         0.637797        -0.918655
 O        -2.411899        -0.407043         1.191905
 C        -3.593559        -1.044635         1.568097
 C        -4.033528        -0.579627         2.934483
 O        -4.130576        -1.951811         0.887524
 H         2.423941         0.550245        -0.875835
 H         2.405426         0.416348         0.923349
 H         2.376178        -1.153484         0.019662
 H        -2.116224        -1.457333        -0.644366
 H        -3.499745         1.284824        -0.151431
 H        -2.184048         1.328060        -1.370402
 H        -3.439846         0.177376        -1.695802
 H        -4.065478         0.528645         2.895161
 H        -5.105865        -0.873621         2.910019
 H        -3.559921        -0.998935         3.823647
