19
Iteration:  4036
 C         1.498588        -0.793088         0.364361
 C         0.078907        -0.801212         0.132911
 C        -1.010014        -0.406722        -0.225691
 C        -2.427096         0.050068        -0.525345
 C        -2.420509         1.455502        -0.960634
 O        -3.092571         0.131416         0.850334
 C        -3.259014        -1.044108         1.578973
 C        -3.291477        -0.751089         2.981175
 O        -3.264156        -2.211994         1.100740
 H         1.755373        -1.678050        -0.146289
 H         1.987509         0.023930        -0.146708
 H         1.821714        -0.898943         1.417031
 H        -2.945047        -0.699202        -1.025448
 H        -3.376153         1.760331        -0.600278
 H        -1.681531         2.194631        -0.527233
 H        -2.318909         1.557712        -2.056568
 H        -2.330678        -0.229610         3.200285
 H        -4.003851         0.027465         3.216083
 H        -3.346794        -1.627188         3.611431
