19
Iteration:  2998
 C         1.921400        -0.223814         0.172287
 C         0.543873        -0.209669        -0.072861
 C        -0.640713        -0.415464        -0.038288
 C        -2.097483        -0.375675        -0.272412
 C        -2.488681         0.750985        -1.243632
 O        -2.734103        -0.118089         1.065381
 C        -3.585670        -1.065324         1.620076
 C        -3.736057        -0.713645         3.053583
 O        -4.167317        -1.936108         1.029208
 H         2.083139         0.313410         1.164243
 H         2.288316        -1.228174         0.136049
 H         2.402773         0.504492        -0.363806
 H        -2.635741        -1.293066        -0.476302
 H        -3.486172         0.502566        -1.685745
 H        -2.366176         1.663432        -0.731722
 H        -1.728739         0.705357        -2.022888
 H        -2.744206        -0.681518         3.540556
 H        -4.026664         0.323722         3.021991
 H        -4.483476        -1.251229         3.595148
