19
Iteration:  1838
 C         2.041604         0.446364         0.018068
 C         0.604018         0.134175        -0.105140
 C        -0.556136        -0.202110        -0.221165
 C        -1.951692        -0.649594        -0.160126
 C        -2.873615         0.280139        -0.855714
 O        -2.298621        -0.634521         1.316862
 C        -3.575212        -1.107824         1.593010
 C        -4.029686        -0.717235         2.941773
 O        -4.302162        -1.763490         0.808840
 H         2.614016        -0.180292        -0.803352
 H         2.209930         1.515014        -0.273247
 H         2.430287         0.331020         1.015096
 H        -2.024511        -1.695226        -0.533778
 H        -2.712338         1.303897        -0.522185
 H        -2.682579         0.329791        -1.989943
 H        -3.916345         0.039830        -0.810583
 H        -3.150480        -0.468615         3.556758
 H        -4.599668         0.173063         2.761632
 H        -4.570326        -1.533609         3.379163
