19
Iteration:  3564
 C         1.866936        -0.044772         0.313957
 C         0.458787        -0.343969        -0.018022
 C        -0.669707        -0.545670        -0.458319
 C        -2.085881        -0.607958        -0.226845
 C        -2.831809         0.379212        -1.175225
 O        -2.376912        -0.264093         1.150205
 C        -3.488877        -0.866582         1.626268
 C        -3.630188        -0.544347         3.161882
 O        -4.227485        -1.487413         0.873044
 H         2.627860        -0.639554        -0.244758
 H         2.073992         1.127190         0.325748
 H         1.939366        -0.545877         1.331922
 H        -2.416777        -1.697206        -0.406075
 H        -3.955745         0.345329        -1.101810
 H        -2.359021         1.288931        -0.871679
 H        -2.635164         0.173013        -2.185951
 H        -4.520187         0.099372         3.155262
 H        -3.868219        -1.468272         3.657286
 H        -2.753874        -0.097882         3.591088
