19
Iteration:  4810
 C         2.030350        -0.626985        -0.525273
 C         0.591425        -0.637805        -0.408756
 C        -0.567485        -0.415472        -0.083247
 C        -2.065780        -0.265152         0.011061
 C        -2.493355         0.778062        -0.997473
 O        -2.596892         0.033030         1.429320
 C        -3.578817        -0.775763         1.781049
 C        -4.115214        -0.786274         3.123591
 O        -4.167487        -1.595445         1.016409
 H         2.621960        -0.006920        -1.231303
 H         2.512833        -0.518653         0.480597
 H         2.287740        -1.584319        -0.931131
 H        -2.628354        -1.239000        -0.276508
 H        -3.526809         1.192075        -1.087468
 H        -1.843350         1.691909        -0.865558
 H        -2.307714         0.317425        -1.979396
 H        -3.646378        -1.582909         3.651359
 H        -3.794961         0.071663         3.705377
 H        -5.170360        -0.907117         2.924723
