19
Iteration:  4287
 C         1.699541        -1.059771        -0.151312
 C         0.179186        -0.849808        -0.103027
 C        -0.957432        -0.498941        -0.171517
 C        -2.370760        -0.005315        -0.280024
 C        -2.450033         1.400964        -0.928712
 O        -3.026074         0.226308         1.030530
 C        -3.200179        -0.895465         1.712411
 C        -4.020444        -0.640213         2.908906
 O        -2.953162        -2.061735         1.310133
 H         2.089413        -1.882926         0.412328
 H         1.988200        -0.986673        -1.218214
 H         2.027289        -0.133948         0.428280
 H        -2.760139        -0.838791        -0.963587
 H        -3.440972         1.671075        -1.183930
 H        -2.220466         2.264189        -0.255862
 H        -1.896334         1.366799        -1.821204
 H        -4.960475        -1.212451         2.816795
 H        -3.506483        -1.056777         3.800941
 H        -4.300673         0.422366         3.020842
