19
Iteration:  3618
 C         2.166249        -0.111292         0.188875
 C         0.695752        -0.071451        -0.088225
 C        -0.492991        -0.249391        -0.230483
 C        -1.933829        -0.647612        -0.323839
 C        -2.875670         0.087206        -1.230477
 O        -2.452530        -0.494031         1.182067
 C        -3.677875        -0.860757         1.645073
 C        -3.646315        -0.710833         3.209326
 O        -4.692319        -1.156752         0.927034
 H         2.653754        -0.593442        -0.665034
 H         2.429702         1.004790         0.271407
 H         2.309656        -0.549640         1.195856
 H        -1.774890        -1.740810        -0.419724
 H        -3.890343        -0.339955        -1.011635
 H        -3.030711         1.132813        -1.059477
 H        -2.463152        -0.142780        -2.167073
 H        -4.423064         0.025805         3.450227
 H        -3.775990        -1.671827         3.637130
 H        -2.664969        -0.257358         3.293461
