19
Iteration:  4688
 C         2.064268        -0.411682        -0.137640
 C         0.622985        -0.386129        -0.501458
 C        -0.556881        -0.499007        -0.287951
 C        -1.977128        -0.609365        -0.127851
 C        -2.724104         0.616020        -0.794811
 O        -2.311732        -0.687241         1.376595
 C        -3.738354        -0.783591         1.666221
 C        -3.673384        -0.603916         3.130511
 O        -4.660864        -0.994089         0.886189
 H         2.533468         0.659618        -0.061316
 H         2.312700        -0.957943         0.801504
 H         2.701674        -0.879793        -0.946175
 H        -2.525947        -1.574500        -0.485104
 H        -3.849382         0.515662        -0.650285
 H        -2.419989         1.597901        -0.287728
 H        -2.536919         0.655580        -1.860012
 H        -2.621204        -0.480353         3.401790
 H        -4.020963         0.425934         3.118658
 H        -4.340939        -1.256657         3.714354
