19
Iteration:  3469
 C         1.935555        -0.323126         0.059375
 C         0.483230        -0.290172         0.032021
 C        -0.728238        -0.523314        -0.077582
 C        -2.280516        -0.347395        -0.365077
 C        -2.433654         0.893849        -1.214459
 O        -2.804277        -0.116978         0.923987
 C        -3.473678        -1.021149         1.646147
 C        -3.876008        -0.409324         2.967590
 O        -3.820006        -2.138780         1.352990
 H         2.264320        -1.204367        -0.395326
 H         2.402224         0.493152        -0.329808
 H         2.129825        -0.581503         1.083432
 H        -2.600534        -1.332964        -0.640488
 H        -3.605605         0.890056        -1.351789
 H        -2.120083         1.744292        -0.691775
 H        -2.090321         0.732906        -2.233192
 H        -4.770462         0.243780         2.784588
 H        -4.157212        -1.196535         3.654148
 H        -3.092787         0.205392         3.437157
