19
Iteration:  3745charge 0 multiplicity 1
 C         1.959221         0.377382        -0.499636
 C         0.649019        -0.296708        -0.246522
 C        -0.383212        -0.834898         0.102776
 C        -1.867217        -0.834340         0.164123
 C        -2.318483         0.283280        -0.904947
 O        -2.448300        -0.606475         1.512151
 C        -3.807525        -0.819025         1.601291
 C        -4.161794        -0.698268         3.055042
 O        -4.548523        -1.004582         0.676220
 H         2.207129         0.125435        -1.606217
 H         1.819561         1.436234        -0.604440
 H         2.756516         0.087011         0.211066
 H        -2.227081        -1.769586        -0.190303
 H        -3.395859         0.375814        -1.003679
 H        -1.546003         1.110969        -0.735206
 H        -2.025764        -0.114227        -1.889500
 H        -5.256622        -0.500750         3.050120
 H        -3.741220        -1.649302         3.493416
 H        -3.600475         0.215095         3.327636
