19
Iteration:  4412charge 0 multiplicity 1
 C         2.020039        -0.693329        -0.421039
 C         0.543381        -0.649298        -0.256644
 C        -0.678772        -0.404285        -0.112488
 C        -2.124857        -0.264902        -0.061854
 C        -2.572363         1.044097        -0.851691
 O        -2.584788        -0.063967         1.242146
 C        -3.551106        -0.933238         1.686571
 C        -4.099245        -0.515257         3.046663
 O        -3.934130        -1.858640         1.071344
 H         2.649661        -0.813823         0.547731
 H         2.171569        -1.542770        -1.148621
 H         2.253745         0.359817        -0.814525
 H        -2.634135        -1.236750        -0.500280
 H        -3.667479         1.046441        -0.898527
 H        -2.248443         1.973675        -0.481022
 H        -2.127534         0.950518        -1.870917
 H        -3.914973        -1.380615         3.674807
 H        -3.561252         0.313933         3.479889
 H        -5.166447        -0.250655         2.969249
