19
Iteration:  2874charge 0 multiplicity 1
 C         2.114009         0.183098        -0.188293
 C         0.640755         0.022355        -0.188488
 C        -0.446512        -0.511428        -0.098790
 C        -1.883821        -0.754886        -0.068415
 C        -2.644360         0.245236        -0.855477
 O        -2.331846        -0.661199         1.456741
 C        -3.710174        -0.889243         1.580412
 C        -4.177590        -0.738570         3.014330
 O        -4.477289        -1.165629         0.656519
 H         2.409529         1.384749         0.225107
 H         2.532549        -0.640903         0.408946
 H         2.602027         0.230925        -1.154607
 H        -2.005842        -1.814588        -0.357011
 H        -3.725355         0.134404        -0.655678
 H        -2.205934         1.263019        -0.622259
 H        -2.461267        -0.119017        -1.876670
 H        -4.345787        -1.792417         3.313861
 H        -3.487807        -0.223677         3.757701
 H        -5.183654        -0.198645         3.121482
