19
Iteration:  1049
 C         1.940566         0.398937         0.067552
 C         0.454278         0.197420         0.148148
 C        -0.720456        -0.042140        -0.069421
 C        -2.155484        -0.236594        -0.303482
 C        -2.895223         0.802996        -1.133263
 O        -2.767514        -0.314388         1.027615
 C        -3.392893        -1.394100         1.612833
 C        -3.893799        -1.088919         3.024623
 O        -3.568530        -2.448980         1.009365
 H         2.402247         0.065537         0.985742
 H         2.258661        -0.317805        -0.865962
 H         2.189591         1.438987        -0.128356
 H        -2.322270        -1.185327        -0.859258
 H        -2.478676         1.787230        -1.044593
 H        -2.862306         0.534176        -2.267930
 H        -3.880103         1.023913        -0.736301
 H        -4.619034        -1.827624         3.449005
 H        -3.011792        -1.102735         3.710261
 H        -4.440184        -0.208207         3.321305
