19
Iteration:  4609charge 0 multiplicity 1
 C         1.730401        -0.034607        -0.150929
 C         0.464171        -0.765270        -0.179971
 C        -0.729121        -0.850766        -0.259337
 C        -2.133234        -0.655538        -0.278470
 C        -2.376908         0.709927        -0.959541
 O        -2.274467        -0.539806         1.275073
 C        -3.618492        -0.754145         1.685519
 C        -3.598318        -0.710329         3.217949
 O        -4.508446        -0.920990         0.917262
 H         1.594518         0.941452         0.340555
 H         2.481082        -0.576698         0.434540
 H         2.132910        -0.008078        -1.219865
 H        -2.864218        -1.511256        -0.552355
 H        -3.361381         1.121114        -0.969727
 H        -1.658258         1.352098        -0.443410
 H        -1.949579         0.751628        -2.040177
 H        -2.608261        -0.997132         3.571913
 H        -4.015109         0.225039         3.634535
 H        -4.206676        -1.528794         3.580311
