19
Iteration:  3932charge 0 multiplicity 1
 C         2.032084        -0.665618        -0.069923
 C         0.497789        -0.515509        -0.012882
 C        -0.673095        -0.164609        -0.083559
 C        -2.173006        -0.133137        -0.221145
 C        -2.809042         1.036108        -1.036198
 O        -2.664853        -0.043795         1.190866
 C        -3.472594        -1.032906         1.599518
 C        -3.854673        -0.796351         3.083048
 O        -3.860816        -1.898062         0.895954
 H         2.374947        -1.482262        -0.839245
 H         2.578823         0.292666        -0.266412
 H         2.340754        -1.059122         0.919936
 H        -2.457851        -1.138855        -0.473009
 H        -3.860651         0.716826        -1.069224
 H        -2.709491         2.051915        -0.819120
 H        -2.616842         0.822442        -2.049025
 H        -3.815970        -1.756239         3.610541
 H        -3.212182        -0.062810         3.583818
 H        -4.883428        -0.377412         3.224686
