19
Iteration:  1798charge 0 multiplicity 1
 C         1.909783         0.592884        -0.127700
 C         0.540505         0.129994        -0.184229
 C        -0.573944        -0.402194        -0.111489
 C        -1.944172        -0.727409        -0.041750
 C        -2.638729         0.282044        -0.994355
 O        -2.319372        -0.574712         1.406319
 C        -3.565144        -1.088468         1.627835
 C        -4.066717        -0.883776         3.021505
 O        -4.277632        -1.569467         0.717708
 H         2.490595        -0.254797        -0.418079
 H         2.219490         1.512026        -0.740395
 H         2.215286         0.764839         0.932527
 H        -2.244398        -1.743142        -0.346576
 H        -2.587786         1.251133        -0.557467
 H        -2.106949         0.139355        -2.002101
 H        -3.737671         0.029565        -1.105126
 H        -3.698889        -1.645822         3.757575
 H        -3.872659         0.132689         3.462605
 H        -5.166453        -1.053639         3.072077
