19
Iteration:  4047charge 0 multiplicity 1
 C         1.427831        -0.883480         0.395406
 C        -0.012629        -0.775517         0.156291
 C        -1.080566        -0.446724        -0.247734
 C        -2.292126         0.068998        -0.534212
 C        -2.478157         1.568083        -0.988603
 O        -3.116477         0.036473         0.794894
 C        -3.179085        -1.083042         1.521964
 C        -3.262165        -0.703837         3.105775
 O        -3.184312        -2.173156         1.099184
 H         1.905750        -1.718029        -0.060947
 H         1.813247         0.019274        -0.079821
 H         1.797707        -0.806284         1.438680
 H        -2.873320        -0.442271        -1.210503
 H        -3.398873         1.989468        -0.661364
 H        -1.560736         2.053043        -0.547910
 H        -2.498121         1.666561        -2.088432
 H        -2.432629        -0.014784         3.344934
 H        -4.226708        -0.229480         3.253080
 H        -3.301114        -1.614448         3.706925
