19
Iteration:  4775charge 0 multiplicity 1
 C         2.054722        -0.661502        -0.515793
 C         0.626661        -0.493669        -0.299432
 C        -0.532469        -0.386925         0.057474
 C        -2.080356        -0.377197        -0.022119
 C        -2.698444         0.647461        -0.921199
 O        -2.551589        -0.127746         1.419386
 C        -3.647862        -0.807358         1.669403
 C        -3.858234        -0.663595         3.145938
 O        -4.253871        -1.398253         0.799015
 H         2.454486         0.203167        -1.023054
 H         2.486216        -0.905684         0.436011
 H         2.092950        -1.621075        -1.020534
 H        -2.299481        -1.421953        -0.311941
 H        -3.839208         0.383778        -0.970421
 H        -2.477429         1.680755        -0.434007
 H        -2.167239         0.653390        -1.864887
 H        -3.206739        -1.373553         3.672817
 H        -3.802467         0.378840         3.424389
 H        -4.833862        -0.961912         3.548860
