19
Iteration:    90charge 0 multiplicity 1
 C         1.745629         0.451657         0.274606
 C         0.334770         0.450696         0.116164
 C        -0.801735         0.163245        -0.159757
 C        -2.188632        -0.282981        -0.342836
 C        -3.121117         0.850056        -1.104351
 O        -2.744940        -0.301293         1.136449
 C        -3.245561        -1.511257         1.549513
 C        -3.763308        -1.308878         3.017714
 O        -3.271852        -2.539295         0.854309
 H         1.978096        -0.483922         0.700672
 H         2.254111         0.579332        -0.696111
 H         2.026717         1.229712         0.956160
 H        -2.178331        -1.327351        -0.682553
 H        -2.751154         1.750538        -0.704912
 H        -2.912926         0.752181        -2.257818
 H        -4.165607         0.611983        -0.958207
 H        -4.702041        -1.800362         3.198151
 H        -2.968188        -1.718000         3.634853
 H        -3.920466        -0.244787         3.058966
