19
Iteration:  4470charge 0 multiplicity 1
 C         2.015196        -0.777181        -0.337661
 C         0.687358        -0.328350        -0.323250
 C        -0.540443        -0.197188        -0.193545
 C        -1.950218        -0.399406        -0.095428
 C        -2.883677         0.588539        -0.820564
 O        -2.391415        -0.188699         1.422855
 C        -3.580024        -0.799565         1.606891
 C        -4.023735        -0.659826         3.135450
 O        -4.249649        -1.391881         0.844386
 H         2.431742        -0.796297         0.730449
 H         2.067346        -1.866536        -0.643298
 H         2.806538        -0.423698        -0.991456
 H        -2.078786        -1.415162        -0.354454
 H        -3.824025         0.038815        -1.005264
 H        -3.139475         1.486270        -0.114603
 H        -2.483153         0.878832        -1.786107
 H        -3.398514        -1.369324         3.726047
 H        -3.863028         0.350742         3.586635
 H        -5.057948        -1.024959         3.230607
