19
Iteration:  1789charge 0 multiplicity 1
 C         1.903433         0.608642        -0.175207
 C         0.566036         0.039889        -0.181121
 C        -0.542407        -0.367938        -0.067541
 C        -1.952042        -0.724611         0.009521
 C        -2.613139         0.270811        -0.995811
 O        -2.395686        -0.568032         1.421461
 C        -3.615046        -1.072689         1.568491
 C        -4.003782        -0.913868         3.030315
 O        -4.283877        -1.558296         0.719117
 H         2.607608        -0.097704        -0.404330
 H         2.052969         1.502414        -0.827529
 H         2.006354         0.992297         0.986316
 H        -2.049419        -1.839566        -0.040276
 H        -2.506967         1.341777        -0.742258
 H        -2.163101         0.312346        -1.965928
 H        -3.708353         0.058382        -1.236184
 H        -3.695475        -1.801240         3.615509
 H        -3.542627         0.021436         3.478247
 H        -5.150748        -0.892503         2.942712
