19
Iteration:   523
 C         1.666154         0.511947         0.113343
 C         0.340495        -0.030415         0.025087
 C        -0.870208        -0.235381        -0.015662
 C        -2.297948        -0.250512        -0.415399
 C        -2.718644         1.003768        -1.244649
 O        -3.074959        -0.167011         1.082952
 C        -3.286649        -1.391993         1.597054
 C        -3.852916        -1.312211         3.098450
 O        -2.985051        -2.429888         1.120173
 H         2.232748         0.420831         0.919892
 H         2.321392         0.285787        -0.800913
 H         1.560423         1.752529         0.020046
 H        -2.651138        -1.108495        -0.964610
 H        -2.633582         1.894769        -0.680931
 H        -2.111904         1.322627        -2.157414
 H        -3.764165         0.863026        -1.509045
 H        -3.696996        -0.350584         3.460706
 H        -4.860513        -1.568299         3.125206
 H        -3.291182        -1.866411         3.763044
