19
Iteration:   970charge 0 multiplicity 1
 C         1.957983         0.674705        -0.135080
 C         0.560729         0.227054         0.002175
 C        -0.609182        -0.144657        -0.052668
 C        -2.049639        -0.383621        -0.066112
 C        -2.895521         0.456515        -1.085107
 O        -2.492054        -0.355513         1.295153
 C        -3.451130        -1.286279         1.639763
 C        -4.053025        -1.272739         2.979499
 O        -3.906313        -2.067549         0.836506
 H         2.337431         1.405384         0.728370
 H         2.733504        -0.158740        -0.282748
 H         2.066902         1.224244        -0.949640
 H        -2.173691        -1.312168        -0.466113
 H        -3.438264         1.307243        -0.687321
 H        -2.270009         0.886355        -1.747367
 H        -3.474098        -0.230054        -1.713841
 H        -5.070259        -0.936655         2.729158
 H        -4.318280        -2.309150         3.378679
 H        -3.636183        -0.701388         3.840653
