19
Iteration:  4021
 C         1.627872        -0.828370         0.289972
 C         0.135747        -0.660005         0.073326
 C        -1.029215        -0.427525        -0.212036
 C        -2.422165        -0.043696        -0.327099
 C        -2.469577         1.411273        -0.992859
 O        -3.070620         0.136623         0.886150
 C        -3.307139        -1.010276         1.538945
 C        -3.304247        -0.739217         3.003339
 O        -3.362581        -2.195853         1.048122
 H         2.295493        -1.693696        -0.116606
 H         2.099189         0.184164         0.056726
 H         1.750569        -0.786413         1.406210
 H        -3.050259        -0.686247        -0.997056
 H        -3.392980         1.994098        -1.058083
 H        -1.711827         1.849966        -0.438205
 H        -2.030394         1.362059        -2.009531
 H        -2.232269        -0.593665         3.263772
 H        -3.939773         0.153478         3.253809
 H        -3.749706        -1.606146         3.516245
