19
Iteration:  4359charge 0 multiplicity 1
 C         1.784161        -0.671695        -0.440335
 C         0.321093        -0.590142        -0.178510
 C        -0.857139        -0.536883        -0.045434
 C        -2.242014        -0.109112        -0.210494
 C        -2.028227         1.225360        -0.931785
 O        -2.868897         0.015465         1.085126
 C        -3.497708        -1.059640         1.710412
 C        -4.041357        -0.501845         3.023840
 O        -3.646864        -2.168495         1.327295
 H         2.197478        -1.098282         0.509599
 H         1.993243        -1.155926        -1.400300
 H         2.016758         0.368129        -0.393925
 H        -2.809593        -0.769384        -0.807384
 H        -2.833026         1.949955        -0.788161
 H        -1.222601         1.860739        -0.501567
 H        -1.905652         1.014516        -2.048284
 H        -4.532047        -1.280279         3.602047
 H        -3.211714        -0.129088         3.615185
 H        -4.817282         0.264359         2.813537
