19
Iteration:   548charge 0 multiplicity 1
 C         1.714700         0.553933         0.093504
 C         0.361367         0.145859         0.006867
 C        -0.793643        -0.188386        -0.097989
 C        -2.313753        -0.312120        -0.195510
 C        -2.724680         0.823553        -1.031127
 O        -3.111044        -0.178482         0.954237
 C        -3.310919        -1.348484         1.572501
 C        -3.741137        -1.233259         2.999631
 O        -3.162506        -2.461562         1.059220
 H         2.282162        -0.053898         0.846979
 H         2.227581         0.397365        -0.816512
 H         1.924604         1.617599         0.396895
 H        -2.565095        -1.162906        -0.766822
 H        -2.331695         1.805407        -0.684132
 H        -2.195057         0.770319        -1.970059
 H        -3.774339         0.781431        -1.264210
 H        -3.916880        -0.160397         3.325653
 H        -4.706721        -1.778418         3.112614
 H        -2.971940        -1.624362         3.746311
