19
Iteration:   222
 C         1.503726         0.252618         0.418737
 C         0.151991        -0.063191         0.059223
 C        -0.995500        -0.033637        -0.313307
 C        -2.436917        -0.094973        -0.476557
 C        -2.939738         1.231409        -1.082713
 O        -3.273889        -0.322235         0.854846
 C        -3.059117        -1.445101         1.626510
 C        -3.716647        -1.259892         2.928697
 O        -2.424033        -2.431492         1.267525
 H         2.324204        -0.086685        -0.479597
 H         1.722095         1.290592         0.713335
 H         1.869641        -0.497860         1.234573
 H        -2.539012        -1.036169        -1.038153
 H        -2.950614         2.029679        -0.356764
 H        -2.145700         1.543833        -1.862563
 H        -3.862993         1.080489        -1.591392
 H        -4.363318        -2.151029         3.110163
 H        -2.911420        -1.261609         3.683378
 H        -4.155175        -0.255940         3.016624
