19
Iteration:  3038charge 0 multiplicity 1
 C         1.975693        -0.507319         0.238388
 C         0.502110        -0.366238         0.168166
 C        -0.700156        -0.177215        -0.069281
 C        -2.176706        -0.231059        -0.331262
 C        -2.751062         0.761528        -1.351161
 O        -2.860082         0.056348         1.002678
 C        -3.502069        -0.983243         1.635654
 C        -3.808708        -0.750295         3.051263
 O        -3.727703        -2.030643         1.055635
 H         2.242946        -0.348360         1.271691
 H         2.448809        -1.487682        -0.079228
 H         2.518862         0.408676        -0.336720
 H        -2.298183        -1.277441        -0.748189
 H        -3.798833         0.762566        -1.456333
 H        -2.302782         1.797358        -1.201292
 H        -2.374326         0.495162        -2.426351
 H        -2.793643        -0.486262         3.498524
 H        -4.563413         0.075321         3.230657
 H        -4.255718        -1.633941         3.534746
