19
Iteration:  1790
 C         1.906111         0.612282        -0.172856
 C         0.556047         0.048581        -0.179903
 C        -0.544053        -0.370130        -0.075746
 C        -1.952239        -0.726427         0.001243
 C        -2.612164         0.271648        -0.998955
 O        -2.385187        -0.570558         1.421848
 C        -3.608821        -1.078745         1.567731
 C        -4.009490        -0.907467         3.029888
 O        -4.280225        -1.557221         0.722570
 H         2.576917        -0.149794        -0.417937
 H         2.087545         1.479795        -0.784938
 H         2.014211         0.968420         0.999812
 H        -2.077283        -1.846211        -0.032698
 H        -2.533327         1.368312        -0.722837
 H        -2.192808         0.292474        -1.933447
 H        -3.692653         0.066975        -1.228764
 H        -3.721407        -1.768362         3.637506
 H        -3.595094         0.028669         3.476705
 H        -5.149179        -0.932849         2.957402
