19
Iteration:   285charge 0 multiplicity 1
 C         1.579725        -0.035898         0.410983
 C         0.072573         0.030367         0.176347
 C        -1.104989        -0.007654        -0.240404
 C        -2.521793        -0.113065        -0.450416
 C        -3.071704         1.169526        -1.093032
 O        -3.267997        -0.299212         0.813136
 C        -2.935932        -1.371380         1.574470
 C        -3.830698        -1.295436         2.790652
 O        -2.100528        -2.223447         1.345472
 H         2.098925         0.374338        -0.501635
 H         1.975402         0.230023         1.375356
 H         1.697054        -1.040657         0.386458
 H        -2.807633        -0.930456        -1.169478
 H        -2.563700         1.918088        -0.617893
 H        -2.672540         1.167622        -2.082366
 H        -4.068104         1.459003        -0.946053
 H        -4.065845        -2.277631         3.204583
 H        -3.261003        -0.652225         3.484334
 H        -4.753005        -0.749036         2.625648
