19
Iteration:  1288
 C         1.493381        -0.377534         0.472076
 C         0.077190        -0.138425         0.186433
 C        -1.059098        -0.299642        -0.274270
 C        -2.514820        -0.151307        -0.533005
 C        -2.900466         1.227737        -1.084842
 O        -3.282911        -0.087518         0.818098
 C        -2.984378        -1.178276         1.603956
 C        -3.792559        -1.173995         2.812940
 O        -2.200647        -2.049324         1.342857
 H         2.016242        -0.701679        -0.620937
 H         2.077352         0.444580         0.808084
 H         1.726842        -1.211876         1.016973
 H        -2.983666        -0.965069        -1.048951
 H        -2.303678         1.989817        -0.708123
 H        -2.841905         1.279078        -2.254801
 H        -3.854418         1.480269        -0.781738
 H        -4.756584        -0.710756         2.557126
 H        -3.899946        -2.226784         3.050471
 H        -3.348463        -0.427147         3.528565
