19
Iteration:  4352charge 0 multiplicity 1
 C         1.732437        -0.682152        -0.384789
 C         0.321583        -0.601216        -0.215627
 C        -0.900816        -0.528661        -0.058017
 C        -2.230350        -0.122512        -0.217658
 C        -2.007983         1.252272        -0.936467
 O        -2.897086         0.075822         1.092542
 C        -3.468691        -1.055942         1.746253
 C        -4.042062        -0.528652         2.994719
 O        -3.616095        -2.201805         1.335031
 H         2.296936        -1.200283         0.362206
 H         2.072415        -1.058256        -1.346972
 H         2.070208         0.366576        -0.485469
 H        -2.942734        -0.805976        -0.724955
 H        -2.936930         1.847205        -0.927137
 H        -1.045803         1.726781        -0.460502
 H        -1.770909         1.086567        -1.985932
 H        -4.609184        -1.325166         3.531468
 H        -3.194332        -0.110689         3.596346
 H        -4.691697         0.341598         2.792614
