19
Iteration:  2698charge 0 multiplicity 1
 C         2.221638        -0.021994        -0.033299
 C         0.669597        -0.168636        -0.069490
 C        -0.559626        -0.303184        -0.105845
 C        -2.004660        -0.498744        -0.150034
 C        -2.858893         0.537267        -0.912842
 O        -2.523554        -0.324998         1.306884
 C        -3.675187        -1.026146         1.591890
 C        -4.075196        -0.624587         2.948644
 O        -4.146349        -1.844408         0.763763
 H         2.607510         0.797655        -0.810270
 H         2.664594         0.408527         0.806678
 H         2.702089        -0.899360        -0.228891
 H        -2.288349        -1.440836        -0.621924
 H        -3.655546         0.866023        -0.120690
 H        -2.272953         1.327052        -1.314056
 H        -3.383481         0.049839        -1.738460
 H        -4.261660         0.499061         3.116775
 H        -4.970614        -1.133429         3.352400
 H        -3.142244        -0.833459         3.516979
