19
Iteration:  1848charge 0 multiplicity 1
 C         2.036458         0.425760         0.012060
 C         0.625494         0.049399        -0.108418
 C        -0.551192        -0.122533        -0.178050
 C        -1.951365        -0.591143        -0.109772
 C        -2.933945         0.319232        -0.867612
 O        -2.356588        -0.644444         1.262209
 C        -3.590441        -1.191694         1.535762
 C        -3.949092        -0.680276         2.921844
 O        -4.274923        -1.791657         0.818584
 H         2.856565        -0.077994        -0.723600
 H         2.009162         1.510143        -0.100370
 H         2.483467         0.222428         1.052580
 H        -2.030566        -1.692919        -0.400694
 H        -2.821172         1.357712        -0.486135
 H        -2.547957         0.166304        -1.933576
 H        -3.923438        -0.019746        -0.702621
 H        -3.108673        -0.128625         3.389219
 H        -4.714117         0.066602         2.803330
 H        -4.434927        -1.280307         3.652577
