19
Iteration:  1852charge 0 multiplicity 1
 C         2.032435         0.422503         0.016918
 C         0.651300        -0.008050        -0.108159
 C        -0.553258        -0.088241        -0.148120
 C        -1.949413        -0.576591        -0.068704
 C        -2.963442         0.349393        -0.891200
 O        -2.393553        -0.646614         1.244470
 C        -3.564361        -1.211357         1.541307
 C        -3.903989        -0.636662         2.932942
 O        -4.278236        -1.830226         0.795900
 H         2.844674        -0.001674        -0.658452
 H         2.054984         1.579213        -0.044220
 H         2.380197         0.124665         0.937964
 H        -2.032067        -1.561525        -0.505309
 H        -2.816488         1.333543        -0.526060
 H        -2.564507         0.207086        -1.963187
 H        -3.964640        -0.146261        -0.655939
 H        -3.089891         0.006000         3.275479
 H        -4.809834         0.015823         2.795117
 H        -4.349687        -1.290068         3.712718
