19
Iteration:  1745
 C         1.986820         0.678675        -0.352385
 C         0.749791        -0.008759         0.049582
 C        -0.366336        -0.424416         0.142799
 C        -1.844380        -0.643660        -0.019685
 C        -2.598129         0.248259        -1.087891
 O        -2.581061        -0.387600         1.287491
 C        -3.686775        -1.095341         1.632506
 C        -3.951063        -1.147824         3.002024
 O        -4.499234        -1.545803         0.796420
 H         2.847629         0.166750        -0.460626
 H         1.720005         0.945160        -1.402887
 H         1.946928         1.742529         0.215947
 H        -2.087935        -1.736610        -0.175852
 H        -2.421257         1.277057        -0.783724
 H        -2.227297         0.132721        -2.099791
 H        -3.720417         0.079613        -1.121752
 H        -4.635409        -1.920484         3.374243
 H        -3.058357        -1.010621         3.673650
 H        -4.669287        -0.360786         3.361890
