19
Iteration:    84charge 0 multiplicity 1
 C         1.739482         0.466467         0.258187
 C         0.321150         0.497648         0.084682
 C        -0.799476         0.105490        -0.165214
 C        -2.195046        -0.240511        -0.260453
 C        -3.096149         0.758219        -1.024643
 O        -2.720254        -0.346489         1.088823
 C        -3.239409        -1.508007         1.547331
 C        -3.767398        -1.281427         2.946366
 O        -3.301090        -2.489568         0.844207
 H         2.032697        -0.491764         0.858831
 H         2.323262         0.509278        -0.669117
 H         2.146343         1.293873         1.011659
 H        -2.337232        -1.270975        -0.645068
 H        -2.888245         1.860894        -0.739691
 H        -2.850598         0.865396        -2.081654
 H        -4.189376         0.471713        -1.008226
 H        -4.667636        -1.881752         3.232593
 H        -2.998356        -1.709056         3.624746
 H        -3.875428        -0.195524         3.161969
