19
Iteration:  1548
 C         1.972307         0.366535         0.109741
 C         0.583305        -0.021516        -0.104220
 C        -0.627468        -0.198529        -0.287462
 C        -2.128452        -0.362833        -0.336459
 C        -2.764903         0.900198        -0.976273
 O        -2.641418        -0.360351         1.087136
 C        -3.468404        -1.274054         1.647393
 C        -4.010642        -0.936151         2.971489
 O        -3.876967        -2.337060         1.164026
 H         2.096359         1.128031         0.765093
 H         2.602856        -0.460485         0.409426
 H         2.255675         0.779994        -0.967396
 H        -2.457091        -1.332097        -0.863055
 H        -2.221470         1.701011        -0.563511
 H        -2.433917         0.950658        -2.075018
 H        -3.806165         0.848080        -0.843021
 H        -3.527066        -0.107842         3.520059
 H        -5.077290        -0.637591         2.949982
 H        -3.908078        -1.754917         3.677826
