19
Iteration:  4000
 C         1.600148        -0.737631         0.235423
 C         0.254430        -0.505683        -0.073914
 C        -0.954799        -0.471100        -0.119484
 C        -2.331562        -0.094648        -0.345084
 C        -2.406849         1.318325        -1.088051
 O        -3.030950         0.145193         0.992201
 C        -3.326073        -1.048344         1.655143
 C        -3.419243        -0.810768         3.139416
 O        -3.505613        -2.104764         0.950404
 H         1.959334        -1.710157        -0.282812
 H         2.447117        -0.000394         0.019655
 H         1.727775        -1.030934         1.318657
 H        -2.875114        -0.560039        -1.141649
 H        -3.440350         1.323144        -1.416323
 H        -2.122130         2.059642        -0.424521
 H        -1.934029         1.363625        -2.101153
 H        -2.387573        -1.110217         3.468533
 H        -3.695785         0.265720         3.279509
 H        -4.202316        -1.384651         3.669267
