19
Iteration:  1756
 C         1.937833         0.704941        -0.341356
 C         0.772278        -0.092599        -0.033725
 C        -0.404874        -0.429582         0.158759
 C        -1.838046        -0.657162         0.006811
 C        -2.637527         0.259983        -1.062307
 O        -2.552053        -0.410654         1.289022
 C        -3.729657        -1.037888         1.551975
 C        -3.960070        -1.090220         3.117415
 O        -4.452505        -1.568324         0.740460
 H         2.857520         0.271379        -0.280797
 H         1.788832         1.256515        -1.287303
 H         2.085660         1.516024         0.531122
 H        -1.935335        -1.716849        -0.354518
 H        -2.521570         1.299591        -0.736483
 H        -2.265575         0.116128        -2.044523
 H        -3.722543        -0.062836        -0.949811
 H        -4.220842        -2.141733         3.304206
 H        -3.037337        -0.789009         3.681763
 H        -4.749116        -0.312684         3.216513
