19
Iteration:  1652
 C         2.173954         0.443482        -0.197034
 C         0.757382         0.140353        -0.053068
 C        -0.475121        -0.066704        -0.098582
 C        -1.938494        -0.568713        -0.029812
 C        -2.996005         0.241310        -0.991966
 O        -2.448836        -0.394830         1.348219
 C        -3.662084        -1.042763         1.576357
 C        -4.085823        -1.150916         3.041146
 O        -4.244454        -1.730428         0.750572
 H         2.787012         0.277756         0.826364
 H         2.675819        -0.120008        -1.036297
 H         2.181852         1.419786        -0.496336
 H        -1.914760        -1.578710        -0.361448
 H        -3.000682         1.218339        -0.396266
 H        -2.504261         0.185751        -1.993373
 H        -4.039304        -0.191991        -0.998773
 H        -4.837769        -0.405541         3.217936
 H        -4.346194        -2.170559         3.240101
 H        -3.300062        -0.910837         3.771831
