19
Iteration:   764
 C         1.836163         0.976354        -0.111353
 C         0.530994         0.362690        -0.058131
 C        -0.535059        -0.248615        -0.004791
 C        -1.934182        -0.614553        -0.159285
 C        -2.641326         0.398316        -1.004921
 O        -2.455881        -0.578080         1.196776
 C        -3.607233        -1.311340         1.600452
 C        -3.901487        -1.198126         3.135688
 O        -4.265906        -1.976189         0.785458
 H         2.081881         1.404126        -1.005487
 H         1.908864         1.835042         0.690592
 H         2.641944         0.316063         0.198236
 H        -2.013610        -1.670238        -0.645362
 H        -2.642765         1.420837        -0.483933
 H        -2.118455         0.441433        -1.923808
 H        -3.607476        -0.053758        -1.306347
 H        -3.366769        -2.010339         3.453366
 H        -3.468450        -0.332635         3.526551
 H        -4.952092        -1.209884         3.325321
