19
Iteration:  2773
 C         2.067203         0.119029        -0.369328
 C         0.687762        -0.069527        -0.032692
 C        -0.444172        -0.512390         0.105899
 C        -1.920523        -0.569456         0.013184
 C        -2.443514         0.269038        -1.063762
 O        -2.544685        -0.294968         1.406701
 C        -3.708772        -0.888923         1.582658
 C        -4.099413        -0.930041         3.071348
 O        -4.475368        -1.404334         0.698890
 H         2.118023         1.215954        -0.671487
 H         2.790505         0.154078         0.424100
 H         2.416741        -0.563403        -1.116303
 H        -2.342331        -1.544013        -0.215190
 H        -3.376296        -0.174707        -1.493235
 H        -2.813954         1.202402        -0.675334
 H        -1.596675         0.385330        -1.715062
 H        -5.224440        -0.827548         3.119524
 H        -3.762827        -1.848955         3.583223
 H        -3.666818        -0.145211         3.707424
