19
Iteration:  3880charge 0 multiplicity 1
 C         2.100411        -0.518790        -0.194289
 C         0.672897        -0.164516        -0.261544
 C        -0.578342        -0.227055        -0.215487
 C        -2.053849        -0.370271        -0.041629
 C        -2.829175         0.775060        -0.813915
 O        -2.372448        -0.391003         1.406855
 C        -3.567275        -0.976303         1.656458
 C        -4.247259        -0.622565         2.977988
 O        -4.086898        -1.709029         0.807643
 H         2.306718        -1.155713        -1.077872
 H         2.758520         0.361506        -0.396162
 H         2.483662        -1.005516         0.682920
 H        -2.122289        -1.445251        -0.220266
 H        -3.998153         0.925622        -0.778095
 H        -2.284210         1.687221        -0.621789
 H        -2.598601         0.537860        -1.916487
 H        -5.023272        -1.350355         3.270366
 H        -3.546744        -0.440330         3.825671
 H        -4.693839         0.405947         2.830607
