19
Iteration:  4075
 C         1.396139        -1.052115         0.571308
 C        -0.015888        -0.715388         0.057165
 C        -1.142524        -0.413624        -0.352171
 C        -2.477753         0.111654        -0.517291
 C        -2.496574         1.595139        -0.978410
 O        -3.192362         0.113629         0.823918
 C        -3.102405        -1.022021         1.532420
 C        -3.254890        -0.726822         2.959578
 O        -2.919174        -2.218574         1.159541
 H         1.751533        -2.089259         0.149297
 H         2.150170        -0.403289         0.040778
 H         1.564445        -1.079219         1.657507
 H        -3.200209        -0.462925        -1.295799
 H        -3.411685         2.173047        -0.637431
 H        -1.683633         2.013273        -0.440037
 H        -2.357179         1.659170        -2.086278
 H        -2.795354         0.278192         3.136075
 H        -4.365490        -0.626555         3.110236
 H        -2.845711        -1.448583         3.665549
