19
Iteration:  1084charge 0 multiplicity 1
 C         1.753569         0.257878         0.205453
 C         0.335618         0.066126         0.082413
 C        -0.852357        -0.044195        -0.095308
 C        -2.246958        -0.177575        -0.286270
 C        -2.850887         0.860994        -1.148889
 O        -2.811357        -0.177473         1.063754
 C        -3.251214        -1.407273         1.589854
 C        -3.816678        -1.065379         2.970589
 O        -3.338809        -2.458476         1.008260
 H         2.129960        -0.433692         0.875644
 H         2.268819        -0.026955        -0.816406
 H         2.126415         1.337499         0.491720
 H        -2.398610        -1.267330        -0.621989
 H        -2.110690         1.675201        -1.227900
 H        -3.047420         0.449467        -2.242883
 H        -3.820491         1.138429        -0.695075
 H        -3.731009        -2.002206         3.483995
 H        -3.150875        -0.316241         3.372742
 H        -4.812039        -0.616632         2.735273
