19
Iteration:  3938
 C         1.991811        -0.679870        -0.021452
 C         0.502230        -0.522382        -0.024835
 C        -0.696996        -0.179296        -0.112861
 C        -2.133804        -0.090297        -0.250843
 C        -2.788212         1.024686        -1.079107
 O        -2.686443        -0.005186         1.187476
 C        -3.475091        -1.029830         1.647833
 C        -3.840187        -0.823656         3.131534
 O        -3.844787        -1.932495         0.892956
 H         2.103623        -1.365581        -0.784361
 H         2.397054         0.262418        -0.326131
 H         2.389985        -1.081638         0.915633
 H        -2.526684        -1.087686        -0.692234
 H        -3.864616         0.819041        -1.134392
 H        -2.683562         2.178559        -0.792250
 H        -2.344425         0.939683        -2.167537
 H        -3.743036        -1.736771         3.734516
 H        -3.168477        -0.083985         3.567360
 H        -4.879939        -0.562112         3.229444
