19
Iteration:  4498
 C         2.121793        -0.724639        -0.366734
 C         0.700095        -0.327442        -0.098157
 C        -0.544883        -0.196923        -0.105879
 C        -2.024344        -0.382226        -0.017542
 C        -2.940624         0.484039        -0.892950
 O        -2.385237        -0.335779         1.305014
 C        -3.601405        -0.769545         1.621564
 C        -3.786196        -0.707722         3.136405
 O        -4.480691        -1.208418         0.780290
 H         2.660084        -0.530711         0.544605
 H         2.260969        -1.784517        -0.551277
 H         2.684536        -0.343687        -1.251942
 H        -2.067121        -1.493569        -0.444174
 H        -3.972432         0.239292        -0.819382
 H        -2.960340         1.461893        -0.542729
 H        -2.526043         0.396664        -1.936930
 H        -3.013771        -1.207544         3.709734
 H        -3.709219         0.330570         3.433528
 H        -4.709569        -1.173786         3.492898
