19
Iteration:  4499
 C         2.121943        -0.715070        -0.369146
 C         0.701344        -0.335635        -0.092925
 C        -0.553511        -0.196345        -0.103084
 C        -2.020179        -0.383841        -0.011833
 C        -2.936827         0.487639        -0.900905
 O        -2.384320        -0.340069         1.300467
 C        -3.592038        -0.777178         1.627877
 C        -3.780841        -0.708066         3.132484
 O        -4.493773        -1.202951         0.781623
 H         2.674723        -0.507843         0.581206
 H         2.240845        -1.811491        -0.537480
 H         2.678534        -0.321258        -1.276613
 H        -2.091407        -1.518446        -0.458096
 H        -3.947828         0.264634        -0.834135
 H        -2.972958         1.487822        -0.597100
 H        -2.513844         0.374009        -1.922350
 H        -3.014298        -1.196463         3.720803
 H        -3.705091         0.328801         3.447632
 H        -4.692637        -1.175729         3.492837
