19
Iteration:  2009charge 0 multiplicity 1
 C         1.880954        -0.069891         0.018996
 C         0.428034        -0.066993         0.172717
 C        -0.775396        -0.281845         0.032773
 C        -2.139971        -0.278289        -0.258992
 C        -2.672625         0.779269        -1.251983
 O        -2.874580        -0.010324         1.018988
 C        -3.430030        -1.117824         1.608406
 C        -3.880842        -0.886367         3.023883
 O        -3.547597        -2.250195         1.084072
 H         2.123303         0.639258        -0.726600
 H         2.407237         0.232695         0.911267
 H         2.315100        -1.151973        -0.246010
 H        -2.533652        -1.209528        -0.718419
 H        -2.453287         1.905290        -1.108646
 H        -2.342866         0.429213        -2.239104
 H        -3.742303         0.678871        -1.213573
 H        -4.949092        -1.254938         2.990722
 H        -3.284273        -1.567905         3.656695
 H        -3.808284         0.192785         3.222825
