19
Iteration:  1844
 C         2.051965         0.423226         0.006110
 C         0.629396         0.103455        -0.108188
 C        -0.575773        -0.166339        -0.203803
 C        -1.954406        -0.613299        -0.152627
 C        -2.886925         0.286358        -0.852539
 O        -2.320193        -0.639348         1.287710
 C        -3.591819        -1.145796         1.568611
 C        -3.987711        -0.709596         2.915761
 O        -4.289894        -1.775321         0.817106
 H         2.641974        -0.050440        -0.679012
 H         2.048761         1.485909        -0.181481
 H         2.505488         0.311393         1.094995
 H        -2.004775        -1.698378        -0.378284
 H        -2.813308         1.362652        -0.494477
 H        -2.644993         0.221188        -1.860338
 H        -3.975351         0.071753        -0.788844
 H        -3.142390        -0.307379         3.482266
 H        -4.663800         0.182746         2.748139
 H        -4.509176        -1.429786         3.613552
