19
Iteration:  2311
 C         1.602904        -0.720235         0.378232
 C         0.200306        -0.436275        -0.032156
 C        -0.959735        -0.123262        -0.132791
 C        -2.402749        -0.031217        -0.418451
 C        -2.758135         1.296152        -1.077348
 O        -3.271813        -0.091532         0.758956
 C        -3.058413        -1.163418         1.659445
 C        -4.021043        -0.797526         2.894396
 O        -2.440074        -2.149526         1.291299
 H         1.540300        -1.125298         1.518606
 H         2.021992        -1.533680        -0.284384
 H         2.274489         0.074353         0.300267
 H        -2.719075        -0.903855        -1.115432
 H        -2.474709         2.151534        -0.348655
 H        -2.227542         1.520971        -1.994104
 H        -3.765046         1.540068        -1.252680
 H        -4.628391         0.108118         2.670073
 H        -4.604797        -1.708706         3.045526
 H        -3.343895        -0.897054         3.715565
