19
Iteration:  1717
 C         1.920607         0.548757        -0.371946
 C         0.583014         0.201334         0.012297
 C        -0.497428        -0.252959         0.117032
 C        -1.902478        -0.639257         0.016714
 C        -2.421810         0.243377        -1.136381
 O        -2.523341        -0.491847         1.331247
 C        -3.758178        -1.064503         1.610198
 C        -3.948195        -1.177407         3.127015
 O        -4.429370        -1.555763         0.754805
 H         2.774736        -0.159191         0.027418
 H         2.026123         0.528184        -1.462363
 H         2.054986         1.555397        -0.064183
 H        -1.988320        -1.723264        -0.147337
 H        -2.110089         1.345157        -1.001484
 H        -1.807984         0.041842        -2.069843
 H        -3.473621         0.105353        -1.414885
 H        -4.872834        -1.692075         3.327590
 H        -3.121228        -1.670148         3.625736
 H        -4.065985        -0.210786         3.631391
