19
Iteration:  2804charge 0 multiplicity 1
 C         2.113719         0.181057        -0.443479
 C         0.730569        -0.180517         0.013765
 C        -0.433763        -0.335246         0.336044
 C        -1.891427        -0.666027         0.019405
 C        -2.496232         0.206619        -0.974964
 O        -2.565277        -0.454987         1.325356
 C        -3.812722        -0.890126         1.486361
 C        -3.971966        -0.863656         3.056084
 O        -4.584398        -1.288415         0.674437
 H         1.976382         1.262644        -0.658426
 H         2.953382        -0.058797         0.339846
 H         2.369833        -0.220167        -1.531870
 H        -2.082955        -1.680345        -0.373711
 H        -3.186810        -0.316759        -1.671618
 H        -3.019073         1.024130        -0.437186
 H        -1.637141         0.632626        -1.545832
 H        -4.936655        -1.343749         3.388915
 H        -3.086570        -1.325358         3.493822
 H        -3.937848         0.170115         3.407794
