19
Iteration:  4238charge 0 multiplicity 1
 C         1.386650        -1.441366         0.089449
 C         0.257685        -0.556307        -0.077789
 C        -0.883367        -0.068316        -0.222521
 C        -2.381092         0.174302        -0.299187
 C        -2.667979         1.382291        -1.112716
 O        -3.023357         0.161943         0.949448
 C        -3.077925        -0.960738         1.690910
 C        -3.931143        -0.805491         2.921214
 O        -2.707979        -2.034079         1.383891
 H         0.803345        -2.390164         0.307230
 H         1.915613        -1.556515        -0.844518
 H         2.008855        -1.314331         0.932947
 H        -2.650077        -0.650926        -0.888899
 H        -3.683520         1.929544        -0.857983
 H        -1.969391         2.161793        -0.780758
 H        -2.623144         1.114523        -2.251464
 H        -4.959188        -0.786339         2.493083
 H        -3.802139        -1.690350         3.544075
 H        -3.846256         0.126143         3.467529
