19
Iteration:  1953
 C         1.894599         0.183605         0.063563
 C         0.487968        -0.160420        -0.169241
 C        -0.684146        -0.251519         0.007546
 C        -2.120681        -0.402088        -0.143893
 C        -2.675629         0.613465        -1.230513
 O        -2.689450        -0.085102         1.193782
 C        -3.494832        -1.122629         1.638893
 C        -3.915722        -0.870744         2.979056
 O        -3.817880        -2.142113         0.962620
 H         2.543341         0.636344        -0.672255
 H         1.932318         0.861793         0.933011
 H         2.395743        -0.791051         0.483528
 H        -2.404760        -1.439976        -0.334897
 H        -2.076612         1.602726        -0.971906
 H        -2.364637         0.275225        -2.162148
 H        -3.776746         0.607467        -1.164393
 H        -4.773922        -0.140958         2.959381
 H        -4.339529        -1.773872         3.453761
 H        -3.022008        -0.419303         3.546183
