19
Iteration:  1420
 C         1.779332        -0.237563         0.181052
 C         0.293333        -0.167368        -0.050061
 C        -0.886895         0.124088         0.113122
 C        -2.307750        -0.038338        -0.283349
 C        -2.907461         0.992096        -1.201242
 O        -3.083260        -0.098541         0.961250
 C        -3.274869        -1.339674         1.600405
 C        -3.926580        -0.984572         2.898706
 O        -2.793607        -2.392918         1.162843
 H         2.346966         0.764306        -0.241883
 H         2.092609        -0.479636         1.166067
 H         2.139348        -1.090118        -0.440514
 H        -2.391520        -1.041553        -0.708610
 H        -2.623883         2.003886        -0.896747
 H        -2.510195         0.804310        -2.320442
 H        -4.034623         1.006306        -1.249443
 H        -3.699960        -1.685617         3.732514
 H        -3.595390        -0.004749         3.303140
 H        -5.008995        -0.942152         2.889906
