19
Iteration:  4430charge 0 multiplicity 1
 C         1.964160        -0.723732        -0.405847
 C         0.539439        -0.565426        -0.322837
 C        -0.638192        -0.330354        -0.120459
 C        -2.012906        -0.187532        -0.150142
 C        -2.666727         0.875005        -0.962297
 O        -2.426570        -0.153587         1.458210
 C        -3.590154        -0.902566         1.698539
 C        -4.112672        -0.535831         3.107872
 O        -4.002291        -1.759045         0.955405
 H         2.149326        -0.814285         0.619642
 H         2.232895        -1.652717        -0.907642
 H         2.466358         0.156526        -0.795735
 H        -2.548339        -1.157223        -0.347285
 H        -3.777256         0.809860        -1.133625
 H        -2.638574         1.796367        -0.355203
 H        -2.078482         1.036138        -1.855473
 H        -3.949938        -1.322272         3.867209
 H        -3.682737         0.404060         3.488601
 H        -5.203080        -0.540488         2.988743
