19
Iteration:  1199
 C         1.622423        -0.270324         0.392254
 C         0.201059        -0.034967         0.103805
 C        -0.985974        -0.023254        -0.143061
 C        -2.404831        -0.177534        -0.442234
 C        -2.993494         1.068171        -1.122548
 O        -3.227702        -0.135270         0.833302
 C        -3.086973        -1.299726         1.556083
 C        -3.717677        -1.004363         2.890703
 O        -2.520686        -2.289338         1.210471
 H         2.001713        -1.370145         0.000130
 H         2.194688         0.432400        -0.090673
 H         1.772571        -0.182581         1.475079
 H        -2.537657        -1.115545        -0.945976
 H        -3.290449         1.738275        -0.280256
 H        -2.235545         1.699912        -1.562368
 H        -3.872984         0.934682        -1.742350
 H        -3.317879        -0.136416         3.452047
 H        -4.773452        -0.764749         2.955411
 H        -3.662440        -1.881628         3.529470
