19
Iteration:   466
 C         1.668494         0.246663         0.190263
 C         0.256445         0.152663        -0.033949
 C        -0.900683        -0.219391        -0.174034
 C        -2.335755        -0.244758        -0.307925
 C        -2.946107         1.022837        -1.045751
 O        -3.079165        -0.204061         0.949557
 C        -3.156713        -1.393576         1.583852
 C        -4.018085        -1.191687         2.935799
 O        -2.565513        -2.370511         1.182296
 H         1.805046         0.507683         1.257583
 H         2.200554        -0.747561         0.022509
 H         2.188676         1.085689        -0.450850
 H        -2.677655        -1.203207        -0.842254
 H        -2.742023         1.791634        -0.270753
 H        -2.708907         1.274188        -2.080060
 H        -4.062645         0.986592        -0.845004
 H        -3.499071        -0.410373         3.468519
 H        -5.005777        -0.765315         2.753796
 H        -4.068197        -2.152055         3.412611
