19
Iteration:   644charge 0 multiplicity 1
 C         1.887045         0.505425         0.195923
 C         0.490968         0.344186        -0.170427
 C        -0.711855         0.047690        -0.082640
 C        -2.090530        -0.339408        -0.222254
 C        -3.186410         0.435805        -1.056484
 O        -2.555863        -0.288618         1.222290
 C        -3.432916        -1.329228         1.560382
 C        -3.852293        -1.191244         3.065025
 O        -3.580013        -2.266217         0.771971
 H         2.498682        -0.281328        -0.035915
 H         2.486598         1.347199        -0.276826
 H         2.033894         0.695472         1.372104
 H        -2.057481        -1.429226        -0.466439
 H        -3.402949         1.409966        -0.539106
 H        -2.815883         0.803255        -2.042434
 H        -4.015851        -0.230775        -1.256194
 H        -4.892339        -1.188175         3.127421
 H        -3.527474        -2.005389         3.649520
 H        -3.472203        -0.264271         3.394595
