19
Iteration:  2918
 C         1.946949         0.240872        -0.011879
 C         0.648247        -0.369625        -0.130928
 C        -0.534527        -0.548195        -0.082582
 C        -1.927628        -0.658070        -0.146360
 C        -2.658799         0.506867        -0.989962
 O        -2.383194        -0.564775         1.312547
 C        -3.684972        -0.937548         1.569298
 C        -3.973273        -0.652685         3.052604
 O        -4.355139        -1.407632         0.737046
 H         2.041009         1.198519         0.792288
 H         2.725537        -0.424795         0.313411
 H         2.395330         0.481357        -0.946325
 H        -2.382985        -1.630024        -0.393259
 H        -3.600896         0.741617        -0.595301
 H        -2.126378         1.522071        -0.887105
 H        -2.768333         0.320907        -2.090039
 H        -3.701106        -1.607248         3.548561
 H        -3.555553         0.299886         3.492076
 H        -5.112711        -0.666154         3.163692
