19
Iteration:  4725
 C         2.136881        -0.603843        -0.387216
 C         0.691836        -0.394292        -0.097586
 C        -0.551071        -0.243688        -0.141896
 C        -2.041871        -0.548965        -0.287723
 C        -2.797228         0.639771        -0.935815
 O        -2.321255        -0.586431         1.255709
 C        -3.634348        -0.773630         1.684984
 C        -3.885735        -0.588888         3.219924
 O        -4.517672        -1.156723         1.006388
 H         2.537710         0.431203        -0.651453
 H         2.663445        -1.109578         0.487839
 H         2.184879        -1.270265        -1.257269
 H        -2.090280        -1.502278        -0.830514
 H        -3.784482         0.291811        -1.089727
 H        -2.786854         1.408606        -0.217640
 H        -2.334629         1.019909        -1.828475
 H        -3.105726        -0.879523         3.910401
 H        -4.220526         0.460942         3.389836
 H        -4.773875        -1.119878         3.560834
