19
Iteration:  2493charge 0 multiplicity 1
 C         1.864764        -0.390389         0.095740
 C         0.368443        -0.262107         0.050734
 C        -0.854991        -0.166068         0.066363
 C        -2.240624        -0.132110        -0.279465
 C        -2.526913         1.012303        -1.137044
 O        -3.172880        -0.018777         0.879543
 C        -3.363824        -1.200916         1.559987
 C        -3.705176        -0.761717         3.018192
 O        -3.441763        -2.325884         1.124251
 H         2.304305        -1.293164        -0.254768
 H         2.442210         0.525584        -0.322673
 H         2.194212        -0.369368         1.276475
 H        -2.503044        -1.030482        -0.898830
 H        -2.753354         2.034123        -0.544123
 H        -1.662106         1.298874        -1.709241
 H        -3.340104         0.716142        -1.816522
 H        -4.054417        -1.597910         3.663311
 H        -2.864656        -0.229250         3.500315
 H        -4.543711        -0.074636         2.868811
