19
Iteration:  2279
 C         1.610415        -0.758168         0.262204
 C         0.249090        -0.322984         0.041667
 C        -0.957907        -0.098119         0.037292
 C        -2.399323         0.023708        -0.450411
 C        -2.689473         1.371698        -1.085930
 O        -3.423696        -0.218605         0.566397
 C        -3.203348        -1.164411         1.507408
 C        -3.868407        -0.820075         2.891390
 O        -2.456746        -2.175735         1.557997
 H         1.682208        -0.948769         1.440493
 H         1.563958        -1.738122        -0.240117
 H         2.332338        -0.152691        -0.075279
 H        -2.538557        -0.650885        -1.382062
 H        -2.603252         2.031828        -0.151986
 H        -1.967735         1.810573        -1.797209
 H        -3.622829         1.245335        -1.548265
 H        -3.989438         0.271625         3.180788
 H        -4.726511        -1.471754         3.042867
 H        -3.024683        -1.209345         3.415520
