19
Iteration:  4298charge 0 multiplicity 1
 C         1.684278        -0.931413        -0.197537
 C         0.242716        -0.883899        -0.130326
 C        -0.954163        -0.571975        -0.163349
 C        -2.314953        -0.045924        -0.329507
 C        -2.386867         1.332038        -0.894616
 O        -3.033757         0.294223         1.016355
 C        -3.286803        -0.942823         1.693083
 C        -4.030835        -0.650266         2.948987
 O        -3.029026        -2.026489         1.321445
 H         2.057032        -1.786416         0.340206
 H         2.219973        -1.038120        -1.159665
 H         2.180591        -0.008071         0.252907
 H        -3.159122        -0.731326        -0.685433
 H        -3.402713         1.484233        -1.124049
 H        -2.045845         1.869073         0.027162
 H        -1.725090         1.678658        -1.620337
 H        -4.927251        -1.296039         2.909417
 H        -3.452323        -0.877630         3.872678
 H        -4.275478         0.417335         2.983784
