19
Iteration:  4413charge 0 multiplicity 1
 C         2.013730        -0.697199        -0.417017
 C         0.544461        -0.644289        -0.263400
 C        -0.676924        -0.398372        -0.111753
 C        -2.128959        -0.268655        -0.062859
 C        -2.578351         1.040296        -0.858491
 O        -2.573023        -0.069076         1.252423
 C        -3.553563        -0.935483         1.683956
 C        -4.105101        -0.517969         3.051364
 O        -3.934972        -1.850361         1.066759
 H         2.661178        -0.806960         0.543531
 H         2.204564        -1.543116        -1.145958
 H         2.244939         0.335089        -0.808125
 H        -2.595562        -1.209138        -0.494923
 H        -3.661014         0.996678        -0.923358
 H        -2.243139         1.997557        -0.468667
 H        -2.131109         0.959824        -1.885322
 H        -3.896361        -1.384131         3.677279
 H        -3.573177         0.326393         3.475966
 H        -5.169434        -0.237688         2.988961
