19
Iteration:  3559
 C         1.858441        -0.058788         0.336729
 C         0.454059        -0.323025        -0.052851
 C        -0.654847        -0.597556        -0.462697
 C        -2.094422        -0.638315        -0.218005
 C        -2.845956         0.408917        -1.125894
 O        -2.422417        -0.243297         1.150260
 C        -3.459831        -0.827231         1.637293
 C        -3.637699        -0.535774         3.134151
 O        -4.188010        -1.541785         0.862854
 H         2.687685        -0.554971        -0.202310
 H         1.984186         0.954660         0.301346
 H         1.988671        -0.439760         1.331195
 H        -2.718358        -1.469619        -0.520684
 H        -3.922661         0.450886        -1.216879
 H        -2.221247         1.346434        -0.860692
 H        -2.540168         0.191155        -2.221281
 H        -4.490811         0.155142         3.222296
 H        -3.837882        -1.469904         3.737523
 H        -2.707251        -0.073600         3.543144
