19
Iteration:  3662
 C         2.104617         0.043369        -0.155271
 C         0.629645        -0.043654        -0.066351
 C        -0.527781        -0.329166         0.023204
 C        -1.895982        -0.770485        -0.147182
 C        -2.630226        -0.040694        -1.284498
 O        -2.436660        -0.569905         1.290678
 C        -3.721573        -0.754572         1.633173
 C        -3.799979        -0.807930         3.187091
 O        -4.626519        -0.942604         0.877022
 H         2.511852        -0.503987        -1.005412
 H         2.467250         1.119162        -0.007299
 H         2.353117        -0.485654         0.787792
 H        -2.166922        -1.805091        -0.450034
 H        -3.685362        -0.466894        -1.563908
 H        -2.886772         0.929816        -0.862497
 H        -1.945893         0.128855        -2.061511
 H        -4.784562        -0.362234         3.414409
 H        -3.921540        -1.851955         3.363761
 H        -2.954808        -0.372920         3.742343
