19
Iteration:  1412
 C         1.728679        -0.262801         0.173206
 C         0.307158        -0.153064         0.024211
 C        -0.895506         0.114079         0.053273
 C        -2.293053        -0.104916        -0.287047
 C        -2.948217         0.972079        -1.132403
 O        -3.092566        -0.073976         0.922194
 C        -3.222613        -1.272245         1.546470
 C        -3.919357        -0.999531         2.883535
 O        -2.748414        -2.367822         1.187383
 H         2.365349         0.543557        -0.215960
 H         2.125297        -0.456795         1.239058
 H         1.946855        -1.104384        -0.356825
 H        -2.426322        -1.049902        -0.766341
 H        -2.668063         1.986143        -0.750876
 H        -2.683324         1.054216        -2.088717
 H        -4.071080         0.820545        -1.091024
 H        -3.804091        -1.874650         3.564396
 H        -3.517508         0.008398         3.170562
 H        -4.979194        -0.724253         2.728989
