19
Iteration:  3737
 C         2.025078         0.432199        -0.493254
 C         0.637979        -0.337146        -0.250752
 C        -0.428818        -0.855061         0.123134
 C        -1.831342        -0.892237         0.207343
 C        -2.376672         0.200896        -0.900679
 O        -2.449911        -0.540073         1.433898
 C        -3.758609        -0.786175         1.578901
 C        -4.135557        -0.739018         3.023908
 O        -4.556269        -0.944800         0.684586
 H         2.296043         0.086712        -1.453814
 H         1.995299         1.514714        -0.503168
 H         2.744522         0.119533         0.202088
 H        -2.269799        -1.862268        -0.168254
 H        -3.541876         0.328284        -0.650748
 H        -1.938745         1.238878        -0.699814
 H        -2.167842        -0.041337        -1.943299
 H        -5.245257        -0.647768         3.087215
 H        -3.852390        -1.678491         3.509833
 H        -3.620620         0.090130         3.585870
