19
Iteration:  4614charge 0 multiplicity 1
 C         1.706758        -0.030718        -0.136777
 C         0.449041        -0.771054        -0.159823
 C        -0.736083        -0.848341        -0.297080
 C        -2.111712        -0.620394        -0.275126
 C        -2.380892         0.706962        -0.976533
 O        -2.276676        -0.574577         1.277032
 C        -3.553801        -0.760160         1.709603
 C        -3.621702        -0.710642         3.231820
 O        -4.517912        -0.914455         0.900128
 H         1.665633         0.993048         0.279541
 H         2.590741        -0.530782         0.333052
 H         2.075613        -0.151793        -1.135387
 H        -2.779245        -1.392485        -0.530121
 H        -3.418140         1.117670        -0.890642
 H        -1.700468         1.388351        -0.428874
 H        -2.001176         0.643497        -1.961966
 H        -2.590402        -0.900657         3.569188
 H        -4.003176         0.276542         3.500630
 H        -4.265248        -1.540185         3.593157
