19
Iteration:  2000charge 0 multiplicity 1
 C         1.940353        -0.017311         0.034110
 C         0.485213        -0.160502         0.187030
 C        -0.690430        -0.295456         0.038420
 C        -2.174562        -0.260980        -0.295096
 C        -2.731432         0.789260        -1.315015
 O        -2.891824         0.008124         1.070344
 C        -3.480684        -1.138866         1.564101
 C        -3.880348        -0.893798         3.009427
 O        -3.580489        -2.228823         1.092677
 H         1.974582         0.671195        -0.747184
 H         2.516931         0.470792         0.780835
 H         2.505857        -0.985805        -0.300435
 H        -2.523051        -1.363299        -0.396623
 H        -2.290313         1.741557        -1.048503
 H        -2.508774         0.462652        -2.403656
 H        -3.791066         0.697722        -1.139148
 H        -4.980455        -1.128773         3.216590
 H        -3.436121        -1.716305         3.631364
 H        -3.630846         0.075839         3.447697
