19
Iteration:  3640
 C         2.116150        -0.057111         0.060563
 C         0.705259         0.038922        -0.121067
 C        -0.498616        -0.244485        -0.145339
 C        -1.909473        -0.762210        -0.086042
 C        -2.711276        -0.000464        -1.212575
 O        -2.430230        -0.536403         1.174574
 C        -3.720210        -0.786145         1.594836
 C        -3.691337        -0.764482         3.100713
 O        -4.750927        -1.055987         0.964326
 H         2.295373        -0.585519        -0.880246
 H         2.632161         0.964052         0.073112
 H         2.355760        -0.681865         0.937824
 H        -2.042128        -1.862413        -0.327240
 H        -3.757508        -0.459327        -1.217768
 H        -2.991096         0.962897        -0.804269
 H        -2.176990         0.062738        -2.112720
 H        -4.524733        -0.158835         3.477784
 H        -3.799185        -1.793632         3.339469
 H        -2.702810        -0.366243         3.317865
