19
Iteration:   286charge 0 multiplicity 1
 C         1.578277        -0.039154         0.414264
 C         0.071835         0.016670         0.181371
 C        -1.106095         0.003429        -0.240662
 C        -2.521043        -0.107240        -0.453697
 C        -3.076548         1.176438        -1.108591
 O        -3.267572        -0.302328         0.825288
 C        -2.934874        -1.373598         1.574566
 C        -3.832519        -1.304622         2.794556
 O        -2.098330        -2.217747         1.350913
 H         2.091616         0.401078        -0.546522
 H         1.971262         0.205806         1.372888
 H         1.645748        -1.004954         0.349939
 H        -2.803047        -0.934510        -1.161374
 H        -2.548236         1.892175        -0.633785
 H        -2.634119         1.175173        -2.095670
 H        -4.031718         1.462839        -0.968164
 H        -4.042440        -2.315917         3.184116
 H        -3.258224        -0.621493         3.444251
 H        -4.755797        -0.748072         2.614955
