19
Iteration:  4635
 C         1.819332        -0.094495        -0.181482
 C         0.468784        -0.653220        -0.058966
 C        -0.685763        -0.925064        -0.478594
 C        -2.056388        -0.589790        -0.205009
 C        -2.533565         0.755514        -0.904663
 O        -2.222480        -0.666939         1.231372
 C        -3.525977        -0.837204         1.745265
 C        -3.701920        -0.630950         3.177485
 O        -4.519150        -0.877209         0.946773
 H         1.639002         0.924128         0.299598
 H         2.564495        -0.491941         0.579372
 H         2.323165        -0.343453        -1.109217
 H        -2.879815        -1.270873        -0.535850
 H        -3.616496         1.014433        -0.789641
 H        -1.926398         1.677200        -0.748039
 H        -2.302455         0.578304        -1.864339
 H        -2.813132        -0.856065         3.775129
 H        -4.249435         0.292671         3.242839
 H        -4.397402        -1.451003         3.487499
