19
Iteration:  4886charge 0 multiplicity 1
 C         1.886487        -0.726014        -0.467945
 C         0.510469        -0.616520        -0.217431
 C        -0.698475        -0.499877        -0.075468
 C        -2.133968        -0.235706        -0.134421
 C        -2.424845         1.212513        -0.752545
 O        -2.759628        -0.114226         1.117651
 C        -3.571583        -0.990926         1.733805
 C        -3.969372        -0.355230         3.084487
 O        -3.870492        -2.055402         1.116308
 H         2.187504        -0.549690        -1.490472
 H         2.588513        -0.151536         0.144063
 H         2.237845        -1.726528        -0.458362
 H        -2.590382        -0.922239        -0.880617
 H        -3.530417         1.177857        -0.944576
 H        -2.096279         2.058979        -0.098951
 H        -2.015781         1.527867        -1.777749
 H        -4.333881        -1.124008         3.705703
 H        -3.024794         0.110036         3.384658
 H        -4.636932         0.503794         2.956762
