19
Iteration:    75charge 0 multiplicity 1
 C         1.782827         0.502811         0.295028
 C         0.307798         0.515290         0.024839
 C        -0.802709         0.062316        -0.169707
 C        -2.237807        -0.227069        -0.199789
 C        -3.056838         0.702144        -0.964837
 O        -2.689606        -0.342067         1.089362
 C        -3.261469        -1.469209         1.512463
 C        -3.744410        -1.277853         2.895286
 O        -3.345641        -2.477531         0.836264
 H         2.069747        -0.545713         0.868875
 H         2.329792         0.452688        -0.646704
 H         2.140746         1.411586         0.767563
 H        -2.372735        -1.162044        -0.790759
 H        -3.222924         1.675164        -0.431906
 H        -2.678097         0.634811        -1.897062
 H        -4.072923         0.307887        -0.895954
 H        -4.686259        -1.873461         2.970433
 H        -2.971405        -1.612852         3.621730
 H        -3.908625        -0.222982         3.213615
