19
Iteration:  2268charge 0 multiplicity 1
 C         1.597552        -0.775822         0.216179
 C         0.196690        -0.253139         0.174211
 C        -0.994426        -0.144341         0.015541
 C        -2.374019        -0.041714        -0.490403
 C        -2.688507         1.438610        -1.068733
 O        -3.400786        -0.251540         0.514291
 C        -3.139406        -1.153447         1.568548
 C        -3.814682        -0.826107         2.879550
 O        -2.499353        -2.150649         1.532673
 H         2.043627        -0.942428         1.299927
 H         1.698754        -1.776067        -0.232083
 H         2.303517        -0.228670        -0.252621
 H        -2.524207        -0.993191        -1.124051
 H        -2.913442         2.177784        -0.219157
 H        -1.885210         1.728525        -1.741131
 H        -3.644007         1.507217        -1.538516
 H        -4.075653         0.248471         3.145696
 H        -4.791091        -1.319006         2.971534
 H        -3.296470        -1.237914         3.716611
