19
Iteration:   288
 C         1.570589        -0.035356         0.413174
 C         0.067748        -0.004503         0.188419
 C        -1.100676         0.021757        -0.238025
 C        -2.523461        -0.097935        -0.460781
 C        -3.077086         1.182861        -1.136595
 O        -3.265872        -0.306781         0.843714
 C        -2.935685        -1.377904         1.576256
 C        -3.834971        -1.320191         2.801262
 O        -2.094107        -2.208294         1.359691
 H         2.062279         0.434143        -0.566838
 H         1.968510         0.190642         1.389229
 H         1.593772        -1.092975         0.274570
 H        -2.785297        -0.942398        -1.127400
 H        -2.477453         1.921417        -0.620518
 H        -2.585838         1.190582        -2.135769
 H        -4.070854         1.473317        -1.007740
 H        -3.994443        -2.366432         3.155892
 H        -3.256275        -0.584350         3.393038
 H        -4.763555        -0.753137         2.590022
