19
Iteration:   756
 C         1.903371         0.966239        -0.080374
 C         0.517100         0.380776        -0.057962
 C        -0.570829        -0.143008        -0.033364
 C        -1.941207        -0.657712        -0.110352
 C        -2.662962         0.363705        -0.980973
 O        -2.543811        -0.624776         1.167210
 C        -3.601203        -1.283014         1.552758
 C        -3.871337        -1.149616         3.123144
 O        -4.214765        -1.983900         0.777472
 H         2.186121         1.272153        -1.069883
 H         1.824291         1.754782         0.589233
 H         2.655343         0.126798         0.324555
 H        -1.976176        -1.621196        -0.647417
 H        -2.534989         1.396872        -0.518334
 H        -2.149283         0.420371        -1.933980
 H        -3.768405         0.087886        -1.087905
 H        -3.432872        -2.120173         3.535027
 H        -3.150753        -0.438647         3.593403
 H        -4.904877        -1.216878         3.459156
