19
Iteration:   741
 C         1.915159         0.871172        -0.009249
 C         0.546017         0.403520        -0.079784
 C        -0.581761        -0.021302        -0.036593
 C        -1.957111        -0.625927        -0.129073
 C        -2.771178         0.341208        -0.997022
 O        -2.512294        -0.558091         1.272149
 C        -3.643280        -1.312741         1.564575
 C        -3.751847        -1.169116         3.018865
 O        -4.235639        -2.070022         0.753568
 H         2.281916         0.981189        -1.003267
 H         2.143630         1.902608         0.491243
 H         2.547906         0.211420         0.454528
 H        -1.929464        -1.747554        -0.348985
 H        -2.436349         1.322596        -0.594658
 H        -2.550702         0.294993        -2.071342
 H        -3.837940         0.167458        -0.923815
 H        -3.654551        -2.096622         3.463875
 H        -3.053951        -0.452604         3.344451
 H        -4.729261        -0.725495         3.112611
