19
Iteration:  2059charge 0 multiplicity 1
 C         1.842626        -0.330242         0.198223
 C         0.438446        -0.065007        -0.136642
 C        -0.748160        -0.107595        -0.103111
 C        -2.186738        -0.116393        -0.214030
 C        -2.728548         0.950872        -1.252786
 O        -2.965920        -0.107114         0.978311
 C        -3.372192        -1.230304         1.623779
 C        -3.989389        -0.809571         2.995574
 O        -3.307114        -2.348031         1.242165
 H         2.518208         0.574214        -0.190160
 H         1.920698        -0.528818         1.315365
 H         2.172813        -1.135448        -0.341776
 H        -2.517553        -1.095853        -0.602732
 H        -2.949413         1.958096        -0.782678
 H        -1.955004         1.095521        -1.982746
 H        -3.748109         0.773176        -1.697888
 H        -4.318272        -1.763550         3.355471
 H        -3.070661        -0.364689         3.394700
 H        -4.852221        -0.075955         2.995624
