19
Iteration:  2017
 C         1.829303        -0.099559         0.028056
 C         0.399451        -0.022669         0.137438
 C        -0.781496        -0.248007         0.024203
 C        -2.203340        -0.259287        -0.234521
 C        -2.634759         0.749512        -1.212985
 O        -2.868509        -0.062955         0.985187
 C        -3.382019        -1.161371         1.631013
 C        -3.894536        -0.874828         2.996454
 O        -3.505418        -2.216436         1.076750
 H         2.402993         0.498558        -0.780879
 H         2.223347         0.027168         1.071703
 H         1.994708        -1.131096        -0.282080
 H        -2.395086        -1.191735        -0.694021
 H        -2.350210         1.869550        -0.995165
 H        -2.198835         0.603635        -2.144126
 H        -3.725554         0.721142        -1.373458
 H        -4.912610        -1.235345         3.057454
 H        -3.194768        -1.231630         3.725339
 H        -3.954264         0.194794         3.312849
