19
Iteration:   424
 C         1.629960         0.023415         0.288007
 C         0.244142         0.020765        -0.038430
 C        -0.951404         0.226254        -0.204584
 C        -2.387603        -0.078833        -0.423662
 C        -3.080392         1.120952        -1.127102
 O        -3.078201        -0.221604         0.893538
 C        -3.082883        -1.502039         1.636709
 C        -4.063862        -1.267400         2.876386
 O        -2.358623        -2.434283         1.411683
 H         1.940532         0.699727         0.945636
 H         2.114494        -0.955186         0.520617
 H         2.247828         0.311625        -0.693040
 H        -2.443222        -1.005519        -0.931797
 H        -2.843134         2.128990        -0.847531
 H        -2.856738         0.978760        -2.218425
 H        -4.195343         1.173780        -0.988446
 H        -3.420674        -1.029884         3.687323
 H        -4.788905        -0.507123         2.705124
 H        -4.530319        -2.167198         3.174026
