19
Iteration:  3561charge 0 multiplicity 1
 C         1.863019        -0.050940         0.328378
 C         0.450614        -0.331456        -0.037291
 C        -0.658882        -0.576968        -0.463803
 C        -2.086042        -0.626013        -0.215587
 C        -2.851126         0.394850        -1.145480
 O        -2.408136        -0.252523         1.150354
 C        -3.465762        -0.838222         1.634642
 C        -3.632783        -0.536151         3.147768
 O        -4.204898        -1.521948         0.862371
 H         2.695132        -0.607227        -0.214316
 H         2.010860         1.029593         0.305219
 H         1.962876        -0.496734         1.313273
 H        -2.616809        -1.558668        -0.494641
 H        -3.874744         0.402732        -1.199107
 H        -2.227361         1.336043        -0.843127
 H        -2.590805         0.185328        -2.210727
 H        -4.504971         0.132151         3.182303
 H        -3.848465        -1.488145         3.721001
 H        -2.733744        -0.094930         3.561140
