19
Iteration:  1146
 C         1.691333         0.015981         0.370438
 C         0.240404        -0.145568         0.046001
 C        -0.944838        -0.027933        -0.278044
 C        -2.392717        -0.150635        -0.403800
 C        -2.944862         0.963380        -1.245548
 O        -2.910276        -0.069217         0.989285
 C        -3.131443        -1.224161         1.657517
 C        -3.824677        -1.213790         2.960362
 O        -2.886707        -2.318902         1.154638
 H         2.203216        -0.944856         0.744726
 H         2.316850         0.444023        -0.442537
 H         1.741413         0.614424         1.185685
 H        -2.661642        -1.082873        -0.826868
 H        -2.981914         1.799746        -0.630016
 H        -2.297035         1.241737        -2.097479
 H        -3.943944         0.861801        -1.515061
 H        -3.157660        -1.430969         3.862434
 H        -4.295098        -0.266116         3.281173
 H        -4.573310        -1.976574         3.164919
