19
Iteration:  1015
 C         1.899465         0.507094         0.028623
 C         0.510884         0.193269        -0.190033
 C        -0.686238        -0.033728        -0.053975
 C        -2.132481        -0.360286        -0.074421
 C        -2.788641         0.616361        -0.977366
 O        -2.765893        -0.248633         1.172125
 C        -3.456391        -1.318367         1.554322
 C        -3.940153        -1.095937         2.984014
 O        -3.679720        -2.372867         0.879612
 H         2.172651         0.582984         1.126180
 H         2.710347        -0.227269        -0.420939
 H         2.235336         1.418297        -0.319843
 H        -2.297112        -1.313196        -0.504364
 H        -2.800490         1.581389        -0.474169
 H        -2.291549         0.730074        -1.937151
 H        -3.746965         0.187610        -1.263566
 H        -4.940693        -1.532076         3.191026
 H        -3.230416        -1.815426         3.538243
 H        -3.663383        -0.116645         3.297798
