19
Iteration:  3544
 C         1.809227        -0.059491         0.378236
 C         0.464730        -0.350098        -0.179383
 C        -0.676162        -0.716547        -0.346690
 C        -2.184054        -0.574413        -0.307188
 C        -2.715826         0.552893        -1.125771
 O        -2.400822        -0.171962         1.121988
 C        -3.518785        -0.844687         1.637005
 C        -3.665113        -0.508539         3.062445
 O        -4.120267        -1.686780         0.969356
 H         2.507734        -0.586382        -0.251137
 H         2.035421         1.048479         0.291098
 H         1.937970        -0.418394         1.450339
 H        -2.495890        -1.617510        -0.377972
 H        -3.875959         0.440263        -0.882397
 H        -2.430292         1.497796        -0.807205
 H        -2.585408         0.362925        -2.191255
 H        -4.500746         0.182108         3.267602
 H        -3.828552        -1.424163         3.579302
 H        -2.700345        -0.070179         3.343445
