19
Iteration:  1707charge 0 multiplicity 1
 C         1.943937         0.534409        -0.320294
 C         0.556333         0.240038        -0.115658
 C        -0.559677        -0.206991         0.194887
 C        -1.944163        -0.654355        -0.017911
 C        -2.411132         0.246041        -1.159766
 O        -2.540810        -0.517998         1.415402
 C        -3.692655        -1.078742         1.636612
 C        -3.968349        -1.135638         3.127415
 O        -4.397795        -1.556831         0.711572
 H         2.659373        -0.215557         0.300165
 H         2.034165         0.358481        -1.457946
 H         2.349874         1.456991        -0.178786
 H        -1.991185        -1.707917        -0.268522
 H        -2.305543         1.348792        -0.864046
 H        -1.783110        -0.089709        -2.125508
 H        -3.464851         0.104519        -1.373424
 H        -4.863824        -1.700209         3.321314
 H        -3.158716        -1.843109         3.265965
 H        -3.673737        -0.177651         3.536479
