19
Iteration:  4259charge 0 multiplicity 1
 C         1.509018        -1.289725        -0.040238
 C         0.138259        -0.670131        -0.060020
 C        -0.943433        -0.217010        -0.165966
 C        -2.315393         0.115097        -0.360028
 C        -2.529688         1.440058        -1.110021
 O        -2.976949         0.226257         1.053689
 C        -3.205587        -1.066636         1.664045
 C        -4.032708        -0.714104         2.960586
 O        -2.744819        -2.106471         1.363806
 H         1.378316        -2.333216         0.351895
 H         1.972383        -1.290850        -1.021730
 H         2.043345        -0.655705         0.685271
 H        -2.708917        -0.730700        -0.885548
 H        -3.689575         1.697173        -1.062920
 H        -1.954592         2.258690        -0.663298
 H        -2.392271         1.396089        -2.251601
 H        -5.118952        -0.845124         2.853532
 H        -3.610466        -1.247790         3.805931
 H        -3.895640         0.334339         3.177418
