19
Iteration:  3010
 C         1.966226        -0.289413         0.193019
 C         0.492376        -0.264827        -0.004554
 C        -0.711260        -0.309037        -0.103370
 C        -2.105537        -0.302154        -0.273362
 C        -2.497419         0.723274        -1.275568
 O        -2.752858        -0.004545         1.036441
 C        -3.569303        -1.091873         1.625216
 C        -3.770133        -0.700527         3.096457
 O        -4.082456        -2.009445         1.047946
 H         2.056624        -0.118896         1.334693
 H         2.494169        -1.251924         0.126715
 H         2.523206         0.284476        -0.476930
 H        -2.197873        -1.255832        -0.771239
 H        -3.607057         0.605234        -1.584029
 H        -2.488811         1.717012        -0.929490
 H        -1.901333         0.663082        -2.149308
 H        -2.781357        -0.711205         3.543652
 H        -4.197841         0.275554         3.211664
 H        -4.314747        -1.501809         3.568003
