19
Iteration:  3150
 C         1.543649        -0.851980         0.473409
 C         0.224679        -0.503958        -0.044452
 C        -0.924009        -0.269352        -0.258411
 C        -2.294625        -0.054181        -0.465941
 C        -2.698562         1.248560        -1.124489
 O        -3.097733        -0.031206         0.762568
 C        -3.176163        -1.115765         1.677114
 C        -4.087523        -0.559091         2.761275
 O        -2.570581        -2.118910         1.510300
 H         1.432358        -1.483871         1.354359
 H         2.020874        -1.507221        -0.258426
 H         2.336853         0.008162         0.479547
 H        -2.903509        -0.834854        -1.034001
 H        -3.807913         1.047719        -1.453289
 H        -2.580111         2.148146        -0.538482
 H        -2.075984         1.316783        -1.998396
 H        -3.697284         0.355437         3.301135
 H        -5.115236        -0.285448         2.384676
 H        -4.041397        -1.433056         3.496688
