19
Iteration:  2888
 C         2.056115         0.234376        -0.112075
 C         0.644912        -0.074444        -0.247731
 C        -0.479679        -0.513644        -0.152398
 C        -1.905317        -0.781309         0.060761
 C        -2.664549         0.281820        -0.844388
 O        -2.370506        -0.630293         1.422569
 C        -3.674128        -0.901736         1.576186
 C        -4.074946        -0.721725         2.967443
 O        -4.444071        -1.209050         0.637673
 H         2.321375         1.137448         0.626031
 H         2.646907        -0.529449         0.465312
 H         2.529349         0.154824        -1.061629
 H        -2.301107        -1.775836        -0.188253
 H        -3.634354         0.549749        -0.574667
 H        -2.189372         1.303789        -0.800698
 H        -2.664931         0.103641        -1.978254
 H        -4.146962        -1.691753         3.488428
 H        -3.369219        -0.054820         3.469958
 H        -5.097222        -0.379179         2.930405
