19
Iteration:  2376charge 0 multiplicity 1
 C         1.531050        -0.532246         0.470942
 C         0.181497        -0.510935        -0.087740
 C        -0.994890        -0.281802        -0.346024
 C        -2.408558        -0.059305        -0.291313
 C        -2.757862         1.200741        -1.273123
 O        -2.877625         0.149751         1.087279
 C        -3.019127        -1.090562         1.731824
 C        -4.034020        -1.009488         2.841383
 O        -2.728966        -2.104404         1.132481
 H         1.517688        -1.481752         1.224246
 H         2.274429        -0.724718        -0.379860
 H         1.806823         0.337025         0.998538
 H        -2.765784        -1.057220        -0.693266
 H        -1.895399         1.877033        -0.940472
 H        -2.582211         0.905260        -2.294534
 H        -3.724311         1.543397        -1.096318
 H        -5.077255        -0.710177         2.524634
 H        -4.145108        -2.017579         3.281021
 H        -3.755215        -0.323076         3.625813
