19
Iteration:  2318
 C         1.599469        -0.729215         0.399050
 C         0.186700        -0.427299         0.014611
 C        -1.011582        -0.187457        -0.184099
 C        -2.401831        -0.016467        -0.494505
 C        -2.786616         1.272828        -1.039355
 O        -3.206007        -0.008884         0.817432
 C        -3.069957        -1.145305         1.673007
 C        -4.008329        -0.851967         2.824780
 O        -2.447533        -2.147151         1.290505
 H         1.710059        -1.132398         1.352904
 H         2.100307        -1.473718        -0.257688
 H         2.298819         0.213456         0.375288
 H        -2.717892        -0.854049        -1.050449
 H        -2.400823         2.133570        -0.456479
 H        -2.232182         1.249584        -1.967850
 H        -3.872095         1.512164        -1.229763
 H        -4.630789         0.015979         2.710411
 H        -4.592831        -1.753070         3.029433
 H        -3.380016        -0.734632         3.760891
