19
Iteration:  1750charge 0 multiplicity 1
 C         1.951576         0.690910        -0.338975
 C         0.766503        -0.043792         0.006589
 C        -0.376139        -0.435989         0.153167
 C        -1.812582        -0.653470         0.004471
 C        -2.642776         0.256944        -1.093867
 O        -2.582620        -0.398347         1.287190
 C        -3.726806        -1.070368         1.581069
 C        -3.942922        -1.123985         3.054508
 O        -4.462941        -1.547019         0.783707
 H         3.045119         0.206995        -0.386910
 H         1.698271         1.128592        -1.312468
 H         1.959571         1.537344         0.276442
 H        -1.982495        -1.690066        -0.309255
 H        -2.501791         1.283818        -0.627525
 H        -2.220611         0.046687        -2.122420
 H        -3.700496         0.100173        -1.028021
 H        -4.475451        -2.038773         3.357894
 H        -3.110815        -0.866350         3.663874
 H        -4.697285        -0.361873         3.275922
