19
Iteration:  2126charge 0 multiplicity 1
 C         1.678925        -0.422745         0.276633
 C         0.257500        -0.258664         0.084874
 C        -0.955629        -0.328828        -0.167977
 C        -2.358858        -0.150268        -0.340562
 C        -2.838967         1.082265        -1.183983
 O        -2.852234         0.070751         1.068599
 C        -3.143208        -1.145999         1.639535
 C        -4.061033        -0.832553         2.745532
 O        -2.840315        -2.280772         1.179683
 H         2.201067         0.630936         0.494377
 H         1.992481        -1.157872         1.074208
 H         2.097218        -0.751368        -0.635968
 H        -2.726179        -1.140298        -0.640622
 H        -2.339691         1.959148        -0.572721
 H        -2.522226         0.940758        -2.180759
 H        -3.889647         1.291045        -1.008543
 H        -3.535341        -0.993177         3.717434
 H        -4.152726         0.261559         2.691356
 H        -5.067775        -1.341620         2.761719
