19
Iteration:  4495
 C         2.115834        -0.749101        -0.360999
 C         0.691914        -0.306589        -0.119428
 C        -0.514476        -0.197978        -0.112880
 C        -2.029389        -0.384593        -0.045910
 C        -2.946423         0.470435        -0.876557
 O        -2.388260        -0.323255         1.323626
 C        -3.641852        -0.757966         1.600359
 C        -3.802945        -0.708029         3.145393
 O        -4.435125        -1.219505         0.785699
 H         2.680710        -0.569810         0.503513
 H         2.281451        -1.779311        -0.581068
 H         2.671828        -0.351715        -1.177857
 H        -2.031547        -1.373736        -0.370176
 H        -4.044942         0.126321        -0.794606
 H        -2.895226         1.488887        -0.378591
 H        -2.594194         0.480838        -1.934357
 H        -2.982065        -1.248258         3.664073
 H        -3.732676         0.360160         3.408317
 H        -4.764595        -1.150010         3.470631
