19
Iteration:  2929charge 0 multiplicity 1
 C         2.000093         0.214961         0.016827
 C         0.667033        -0.406680        -0.041349
 C        -0.538280        -0.595678        -0.127192
 C        -2.021026        -0.602541        -0.163324
 C        -2.655082         0.599978        -1.035957
 O        -2.394591        -0.508606         1.255878
 C        -3.639433        -0.893631         1.599666
 C        -3.964998        -0.707231         3.034319
 O        -4.384396        -1.505523         0.803691
 H         1.907453         1.184114         0.706789
 H         2.776686        -0.444955         0.310939
 H         2.106238         0.676756        -0.928883
 H        -2.234485        -1.571983        -0.631757
 H        -3.644609         0.636089        -0.725892
 H        -2.009838         1.512338        -0.835448
 H        -2.632736         0.301923        -2.119297
 H        -3.470930        -1.369260         3.766339
 H        -3.534070         0.302216         3.306377
 H        -5.089484        -0.657243         3.118784
