19
Iteration:  4879
 C         1.896929        -0.708121        -0.509878
 C         0.472835        -0.595622        -0.172830
 C        -0.713035        -0.500815        -0.032871
 C        -2.113658        -0.232659        -0.164156
 C        -2.427779         1.149996        -0.711287
 O        -2.718091        -0.047306         1.128954
 C        -3.566037        -1.007402         1.666528
 C        -3.934231        -0.369506         3.042877
 O        -3.912909        -2.037374         1.115580
 H         2.111893        -0.430285        -1.584732
 H         2.557809        -0.149279         0.200644
 H         2.068986        -1.821344        -0.459944
 H        -2.467713        -1.115915        -0.800997
 H        -3.478340         1.250984        -0.764071
 H        -2.034858         1.913840        -0.105196
 H        -2.058443         1.146806        -1.750395
 H        -4.249730        -1.054702         3.853521
 H        -3.093745         0.114501         3.539008
 H        -4.750847         0.325559         2.865577
