19
Iteration:   145
 C         1.748122         0.404521         0.341076
 C         0.313209         0.149771         0.008263
 C        -0.910254         0.023662         0.003440
 C        -2.394827        -0.168999        -0.369819
 C        -2.962334         0.904136        -1.194449
 O        -3.133150        -0.176285         1.036066
 C        -3.219286        -1.435113         1.555601
 C        -3.654179        -1.374149         2.998916
 O        -2.896739        -2.447955         0.942718
 H         2.344472        -0.472569         0.189311
 H         2.176931         1.252428        -0.222685
 H         1.758026         0.671618         1.414899
 H        -2.504098        -1.178836        -0.782442
 H        -2.714375         1.864178        -0.830304
 H        -2.709895         0.646489        -2.298334
 H        -3.996616         0.832608        -0.890649
 H        -4.546652        -1.987054         3.111675
 H        -2.760079        -1.704022         3.531188
 H        -3.707786        -0.331082         3.312198
