19
Iteration:  3292charge 0 multiplicity 1
 C         1.632235        -0.959021         0.182107
 C         0.230728        -0.628876         0.013381
 C        -0.893259        -0.330666        -0.343166
 C        -2.340122         0.011611        -0.511201
 C        -2.613080         1.332041        -1.136221
 O        -3.139321        -0.082635         0.779475
 C        -3.187257        -0.992948         1.796886
 C        -4.414322        -0.716688         2.640834
 O        -2.384814        -1.925016         1.865069
 H         1.768722        -2.004214         0.365624
 H         2.267562        -0.677319        -0.655911
 H         2.038811        -0.187186         0.930312
 H        -2.587891        -0.815068        -1.172573
 H        -3.659586         1.497759        -1.529692
 H        -2.407671         2.105775        -0.332290
 H        -1.863591         1.478802        -1.916371
 H        -4.971645         0.192515         2.421417
 H        -5.076924        -1.603025         2.478075
 H        -4.171978        -0.787283         3.724565
