19
Iteration:  2356charge 0 multiplicity 1
 C         1.527285        -0.613303         0.423703
 C         0.109769        -0.448002         0.119341
 C        -0.982954        -0.373237        -0.388494
 C        -2.422913        -0.011478        -0.469639
 C        -2.770141         1.214057        -1.169017
 O        -2.829741         0.163561         1.050963
 C        -3.075271        -1.013513         1.582051
 C        -4.065543        -1.076291         2.871922
 O        -2.597291        -2.099105         1.256780
 H         1.686575        -1.346656         1.386865
 H         2.057469        -0.895803        -0.507762
 H         1.871320         0.348044         0.667426
 H        -3.136957        -0.807767        -0.947287
 H        -2.182168         2.125443        -0.948821
 H        -2.551160         0.877837        -2.244941
 H        -3.855490         1.407673        -1.118213
 H        -5.022954        -0.516311         2.570164
 H        -4.355174        -2.100925         3.182690
 H        -3.588617        -0.591817         3.719679
