19
Iteration:  2047
 C         1.807096        -0.281903         0.128175
 C         0.423985         0.017423        -0.095773
 C        -0.797273        -0.101922        -0.083266
 C        -2.237740        -0.203522        -0.286884
 C        -2.624467         0.888798        -1.209766
 O        -2.930772        -0.054993         1.067325
 C        -3.466770        -1.223997         1.630878
 C        -3.942203        -0.828257         2.986872
 O        -3.324420        -2.353711         1.159540
 H         2.654794         0.453984        -0.136511
 H         1.916833        -0.414125         1.251750
 H         2.020374        -1.232363        -0.262840
 H        -2.414923        -1.232169        -0.711094
 H        -2.643557         1.810970        -0.674283
 H        -1.861109         0.979914        -2.027823
 H        -3.570024         0.539984        -1.727558
 H        -4.487933        -1.509005         3.636861
 H        -3.090722        -0.523205         3.640212
 H        -4.493308         0.125079         2.858891
