19
Iteration:  1389
 C         1.713262        -0.386200         0.236529
 C         0.267268         0.002440         0.225810
 C        -0.875098        -0.067188        -0.202670
 C        -2.349281        -0.121685        -0.399842
 C        -3.071583         1.017915        -1.058143
 O        -3.069799        -0.097542         0.881436
 C        -3.077744        -1.219905         1.610866
 C        -3.958197        -1.033390         2.865682
 O        -2.640285        -2.242392         1.218607
 H         2.358644         0.331372        -0.386572
 H         2.302401        -0.385834         1.190520
 H         1.791408        -1.287426        -0.203940
 H        -2.597766        -1.021834        -0.921013
 H        -2.972412         1.932862        -0.464793
 H        -2.622853         1.354449        -1.934030
 H        -4.140285         0.767877        -1.286863
 H        -4.217123        -2.088192         3.131451
 H        -3.551424        -0.351694         3.666735
 H        -4.847970        -0.454798         2.590710
