19
Iteration:   900
 C         1.950662         0.839019        -0.208360
 C         0.586833         0.461994        -0.151843
 C        -0.501909         0.020762         0.093266
 C        -1.843363        -0.502479        -0.004746
 C        -2.780991         0.259835        -0.910826
 O        -2.347713        -0.749755         1.383228
 C        -3.615746        -1.308759         1.553301
 C        -4.078788        -1.210047         2.941288
 O        -4.284471        -1.906332         0.713023
 H         2.071082         1.923593         0.047351
 H         2.493292         0.209336         0.392225
 H         2.319555         0.661968        -1.350092
 H        -1.775279        -1.584762        -0.304216
 H        -2.487049         1.312249        -0.924019
 H        -2.613461        -0.015316        -2.061544
 H        -3.834842         0.016551        -0.791565
 H        -4.165848        -0.064241         3.044615
 H        -5.150735        -1.431266         3.197379
 H        -3.444474        -1.602050         3.788919
