19
Iteration:  1324
 C         1.446653        -0.368706         0.490490
 C         0.186011        -0.351269        -0.208447
 C        -1.012348        -0.083378        -0.231600
 C        -2.442961        -0.014548        -0.470773
 C        -2.896905         1.194558        -1.194630
 O        -3.160422        -0.093495         0.932787
 C        -3.033130        -1.196862         1.674646
 C        -3.924581        -1.214327         2.905749
 O        -2.270464        -2.091332         1.307949
 H         2.259195        -0.106606        -0.256238
 H         1.411350         0.540487         1.271349
 H         1.670369        -1.266372         1.036194
 H        -2.715811        -0.961960        -0.922865
 H        -2.630077         2.037217        -0.524522
 H        -2.419020         1.286731        -2.092659
 H        -4.001278         1.138992        -1.366414
 H        -4.924238        -1.546360         2.506727
 H        -3.627733        -1.855797         3.802870
 H        -4.068637        -0.232378         3.421795
