19
Iteration:  2502charge 0 multiplicity 1
 C         1.883880        -0.344778         0.127464
 C         0.397629        -0.252900         0.009198
 C        -0.814503        -0.215191         0.053741
 C        -2.245768        -0.141646        -0.257198
 C        -2.486604         1.005376        -1.164906
 O        -3.164267        -0.011599         0.860913
 C        -3.454204        -1.132189         1.555413
 C        -3.712505        -0.831739         3.052889
 O        -3.444321        -2.280324         1.112821
 H         2.187763        -1.290009        -0.424100
 H         2.356881         0.554547        -0.337465
 H         2.231247        -0.453866         1.240936
 H        -2.569549        -1.187550        -0.563342
 H        -2.818333         1.840968        -0.455028
 H        -1.680024         1.120351        -1.839769
 H        -3.440657         0.726744        -1.677011
 H        -3.809245        -1.738391         3.654214
 H        -3.024836        -0.110997         3.507080
 H        -4.622785        -0.175271         3.109478
