19
Iteration:  4195
 C         1.212309        -1.633822         0.304903
 C         0.116670        -0.621880        -0.009489
 C        -0.898036         0.025681        -0.225574
 C        -2.329761         0.169007        -0.320657
 C        -2.935951         1.422540        -1.112466
 O        -2.983156         0.253198         0.940364
 C        -3.079243        -0.957091         1.598974
 C        -3.805841        -0.836491         2.850950
 O        -2.380890        -1.948381         1.237267
 H         0.670294        -2.603164         0.374110
 H         2.116505        -1.789392        -0.252387
 H         1.439173        -1.562064         1.311324
 H        -2.721442        -0.765576        -0.649418
 H        -4.070382         1.475987        -0.966840
 H        -2.655060         2.389544        -0.694153
 H        -2.542844         1.206359        -2.166605
 H        -4.735916        -0.231595         2.763634
 H        -4.024740        -1.827926         3.254131
 H        -3.074902        -0.293590         3.459835
