19
Iteration:  2518charge 0 multiplicity 1
 C         1.892572        -0.298506         0.077454
 C         0.420502        -0.233289         0.037880
 C        -0.791396        -0.303545         0.074873
 C        -2.205515        -0.260285        -0.305464
 C        -2.557135         0.973408        -1.245183
 O        -3.097307         0.035761         0.946449
 C        -3.530852        -1.084815         1.594103
 C        -3.788878        -0.912844         3.082632
 O        -3.463701        -2.165634         1.088797
 H         2.356943        -1.164086        -0.376259
 H         2.409033         0.744729        -0.055247
 H         2.243660        -0.507490         1.155514
 H        -2.571093        -1.161835        -0.765773
 H        -2.289300         1.948846        -0.707206
 H        -1.695050         0.980142        -2.021907
 H        -3.574492         0.914379        -1.654546
 H        -3.403255        -1.880359         3.469298
 H        -3.110128        -0.094608         3.459319
 H        -4.778383        -0.601118         3.454000
