19
Iteration:  2785
 C         2.061853         0.185801        -0.406801
 C         0.703430        -0.126807         0.003838
 C        -0.450501        -0.481634         0.200324
 C        -1.838557        -0.683491         0.128335
 C        -2.486703         0.316898        -1.078528
 O        -2.539491        -0.317189         1.338737
 C        -3.803596        -0.922176         1.549171
 C        -4.034021        -0.908541         3.029752
 O        -4.518365        -1.342172         0.723901
 H         2.281852         1.204689        -0.903314
 H         2.638703        -0.104201         0.411623
 H         2.286008        -0.458951        -1.196442
 H        -1.945886        -1.754225        -0.092459
 H        -3.239227        -0.280470        -1.701099
 H        -2.849794         1.161941        -0.547545
 H        -1.828207         0.725203        -1.801696
 H        -5.135233        -1.125034         3.159641
 H        -3.502899        -1.777581         3.452835
 H        -3.722205         0.077530         3.432487
