19
Iteration:  4281charge 0 multiplicity 1
 C         1.648285        -1.091396        -0.093196
 C         0.196859        -0.846062        -0.103726
 C        -0.984012        -0.432059        -0.158589
 C        -2.351059         0.036828        -0.260865
 C        -2.501208         1.444418        -0.946810
 O        -2.993562         0.157183         1.001669
 C        -3.188789        -0.957328         1.703705
 C        -4.032950        -0.631084         2.927417
 O        -2.902184        -2.030711         1.311883
 H         1.988296        -2.097514         0.293070
 H         1.889479        -1.046689        -1.161274
 H         2.141903        -0.213382         0.348127
 H        -2.899213        -0.684807        -0.871002
 H        -3.550690         1.636344        -1.387115
 H        -2.036644         2.320473        -0.463188
 H        -1.956843         1.265722        -1.949097
 H        -4.977105        -1.158094         2.744792
 H        -3.531989        -1.061481         3.786300
 H        -4.267831         0.400712         3.158400
