19
Iteration:  1332
 C         1.446164        -0.363113         0.480192
 C         0.162920        -0.366528        -0.232419
 C        -0.996538         0.000196        -0.230675
 C        -2.413378        -0.044953        -0.413706
 C        -2.914058         1.183763        -1.207533
 O        -3.170115        -0.022435         0.935017
 C        -2.944397        -1.217374         1.676129
 C        -3.946956        -1.199011         2.919789
 O        -2.321250        -2.174148         1.333205
 H         2.342212        -0.012304        -0.248307
 H         1.267286         0.344570         1.210521
 H         1.705498        -1.226115         0.963413
 H        -2.639193        -0.941706        -0.955826
 H        -2.798670         1.955918        -0.504751
 H        -2.212194         1.291927        -2.126972
 H        -3.936580         1.198616        -1.471629
 H        -4.853786        -1.682111         2.542590
 H        -3.533633        -1.876275         3.662140
 H        -4.273086        -0.159803         3.054887
