19
Iteration:  2774charge 0 multiplicity 1
 C         2.070248         0.119774        -0.374212
 C         0.683903        -0.071995        -0.028564
 C        -0.439935        -0.511734         0.110422
 C        -1.907787        -0.575722         0.023969
 C        -2.443905         0.271333        -1.069595
 O        -2.549110        -0.295704         1.405679
 C        -3.707249        -0.886764         1.578330
 C        -4.094585        -0.930579         3.068919
 O        -4.484057        -1.402442         0.697489
 H         2.114177         1.227689        -0.682408
 H         2.760613         0.132864         0.408649
 H         2.392060        -0.535414        -1.095417
 H        -2.329551        -1.542462        -0.240634
 H        -3.398225        -0.170208        -1.498417
 H        -2.839862         1.172275        -0.653317
 H        -1.603739         0.393612        -1.686129
 H        -5.214500        -0.836007         3.099856
 H        -3.729094        -1.830201         3.596255
 H        -3.665349        -0.135854         3.714317
