19
Iteration:  3869charge 0 multiplicity 1
 C         2.120402        -0.415823        -0.257983
 C         0.649268        -0.188361        -0.298247
 C        -0.551150        -0.221041        -0.181308
 C        -1.987614        -0.438013        -0.020036
 C        -2.756801         0.757933        -0.850354
 O        -2.297566        -0.455738         1.498507
 C        -3.567782        -0.987504         1.662239
 C        -4.293385        -0.587013         2.930993
 O        -4.212043        -1.665405         0.842913
 H         2.323685        -1.107641        -1.078118
 H         2.779755         0.470982        -0.381740
 H         2.391225        -0.975644         0.625654
 H        -2.493839        -1.234116        -0.544148
 H        -3.912825         0.598636        -0.675240
 H        -2.482313         1.752608        -0.544540
 H        -2.460744         0.537124        -1.926903
 H        -5.158644        -1.261986         3.010342
 H        -3.609667        -0.674790         3.794710
 H        -4.673665         0.457587         2.761276
