19
Iteration:   518
 C         1.596055         0.513418         0.086929
 C         0.322723        -0.057075         0.036290
 C        -0.869169        -0.225915        -0.008604
 C        -2.281009        -0.206371        -0.436646
 C        -2.714786         1.017313        -1.254956
 O        -3.061605        -0.139886         1.100781
 C        -3.244426        -1.375120         1.607054
 C        -3.848297        -1.322712         3.061609
 O        -2.957695        -2.467110         1.151807
 H         2.236298         0.407820         1.146589
 H         2.243742         0.184951        -0.715068
 H         1.570136         1.502093        -0.040314
 H        -2.695001        -1.095290        -1.039510
 H        -2.809890         1.982608        -0.628886
 H        -2.072944         1.163805        -2.102734
 H        -3.797809         0.908362        -1.555734
 H        -3.651127        -0.226206         3.379476
 H        -4.980253        -1.555870         2.894497
 H        -3.355568        -2.042208         3.845505
