19
Iteration:  3099
 C         1.648739        -0.806292         0.374794
 C         0.350012        -0.357994         0.076055
 C        -0.791411        -0.130585        -0.231199
 C        -2.178749        -0.066666        -0.376441
 C        -2.835042         0.960639        -1.343402
 O        -2.887531         0.090912         0.959501
 C        -3.278625        -0.998270         1.651640
 C        -3.986226        -0.709270         2.951705
 O        -3.068319        -2.164393         1.231916
 H         1.643353        -1.093854         1.488144
 H         2.050844        -1.657566        -0.168575
 H         2.305995        -0.030336         0.187799
 H        -2.585636        -1.037675        -0.549460
 H        -3.973520         0.954618        -1.393043
 H        -2.631608         2.015459        -1.072503
 H        -2.327509         0.652145        -2.218343
 H        -3.454707        -0.000197         3.537731
 H        -4.805283        -0.058265         2.647907
 H        -4.155513        -1.597142         3.558392
