19
Iteration:  1737charge 0 multiplicity 1
 C         1.970165         0.691620        -0.396295
 C         0.745489         0.043006         0.102915
 C        -0.431635        -0.399707         0.124080
 C        -1.921401        -0.641669        -0.042400
 C        -2.512282         0.237534        -1.075935
 O        -2.544823        -0.373126         1.301517
 C        -3.675034        -1.131950         1.575745
 C        -3.986676        -1.161277         3.066883
 O        -4.521640        -1.544712         0.822778
 H         2.858233         0.008929        -0.291481
 H         1.856758         0.785336        -1.428919
 H         2.268017         1.712677         0.028281
 H        -2.136555        -1.736590        -0.166550
 H        -2.326205         1.358836        -0.982420
 H        -2.126144         0.107198        -2.028956
 H        -3.591076        -0.036643        -1.144526
 H        -4.621569        -2.007483         3.192602
 H        -3.069712        -1.317285         3.622442
 H        -4.429574        -0.171627         3.282069
