19
Iteration:  2551charge 0 multiplicity 1
 C         1.823818        -0.193277         0.096558
 C         0.371647        -0.323609         0.147715
 C        -0.820578        -0.312233        -0.114321
 C        -2.208761        -0.198773        -0.211776
 C        -2.583494         0.877521        -1.291661
 O        -2.808803         0.027011         1.101733
 C        -3.326632        -1.085562         1.602153
 C        -3.873215        -0.942285         3.013551
 O        -3.618841        -2.094750         1.009901
 H         2.388749        -0.719093        -0.692517
 H         2.124312         0.908015         0.183860
 H         2.231694        -0.622575         1.119770
 H        -2.656864        -1.164792        -0.437273
 H        -1.855105         1.700724        -1.214330
 H        -2.373798         0.147584        -2.169106
 H        -3.633121         1.255420        -1.295295
 H        -3.303361        -1.509144         3.763814
 H        -3.837985         0.145404         3.288433
 H        -4.940087        -1.254022         3.079997
