19
Iteration:  3786
 C         1.969008         0.191692        -0.633459
 C         0.703254        -0.331751        -0.031218
 C        -0.430055        -0.666999         0.195341
 C        -1.886563        -0.738285        -0.012742
 C        -2.366411         0.492330        -0.836981
 O        -2.432851        -0.679339         1.399802
 C        -3.713024        -0.881819         1.637600
 C        -4.210249        -0.535846         2.958515
 O        -4.525031        -1.290525         0.780355
 H         2.015233        -0.231220        -1.695021
 H         1.769259         1.303805        -0.682202
 H         2.887604         0.050745         0.093327
 H        -2.251936        -1.655480        -0.523652
 H        -3.331904         0.733958        -1.111709
 H        -1.939839         1.358558        -0.311505
 H        -1.715903         0.507873        -1.758464
 H        -5.279014        -0.515098         3.055863
 H        -3.873527        -1.160553         3.806027
 H        -3.859642         0.426320         3.251880
