19
Iteration:  1841charge 0 multiplicity 1
 C         2.052056         0.428058         0.021812
 C         0.622473         0.123214        -0.107173
 C        -0.574693        -0.186937        -0.214432
 C        -1.954991        -0.631758        -0.163101
 C        -2.872617         0.281469        -0.842733
 O        -2.305831        -0.636316         1.303018
 C        -3.583183        -1.120569         1.588278
 C        -4.010837        -0.716702         2.924627
 O        -4.299766        -1.771291         0.810793
 H         2.617836        -0.116679        -0.757900
 H         2.121061         1.544411        -0.237396
 H         2.440388         0.347632         0.981366
 H        -2.002204        -1.668685        -0.432810
 H        -2.779776         1.292214        -0.527511
 H        -2.668535         0.276577        -1.969841
 H        -3.978376         0.074490        -0.816789
 H        -3.147265        -0.398405         3.521576
 H        -4.623772         0.193706         2.735027
 H        -4.530488        -1.492988         3.513449
