19
Iteration:  1289charge 0 multiplicity 1
 C         1.494881        -0.384617         0.477497
 C         0.085558        -0.137123         0.178237
 C        -1.054367        -0.309634        -0.282746
 C        -2.521768        -0.137668        -0.528725
 C        -2.905118         1.220957        -1.085256
 O        -3.285016        -0.078562         0.817067
 C        -2.980816        -1.185418         1.596549
 C        -3.791660        -1.178594         2.809237
 O        -2.206396        -2.043888         1.349077
 H         2.042853        -0.680665        -0.609877
 H         2.100691         0.491116         0.832823
 H         1.739694        -1.206989         1.001992
 H        -2.986037        -0.966575        -1.006439
 H        -2.301085         1.973538        -0.709274
 H        -2.832781         1.288447        -2.223610
 H        -3.869002         1.478271        -0.794890
 H        -4.781806        -0.735079         2.557490
 H        -3.886846        -2.254884         3.101815
 H        -3.358125        -0.419094         3.534662
