19
Iteration:  2359charge 0 multiplicity 1
 C         1.522984        -0.618475         0.431157
 C         0.121825        -0.457566         0.102319
 C        -0.985751        -0.353344        -0.392442
 C        -2.430971        -0.029457        -0.458822
 C        -2.743987         1.201654        -1.186670
 O        -2.823681         0.157307         1.064831
 C        -3.077857        -1.023616         1.599647
 C        -4.064666        -1.074050         2.886251
 O        -2.615552        -2.085263         1.237939
 H         1.668196        -1.270384         1.265315
 H         2.089816        -0.849937        -0.439429
 H         1.869391         0.420747         0.730068
 H        -3.150078        -0.772745        -0.869649
 H        -2.271700         2.111929        -0.999589
 H        -2.576245         0.907998        -2.299651
 H        -3.867435         1.491002        -1.096008
 H        -4.911684        -0.584381         2.422978
 H        -4.346881        -2.100638         3.189037
 H        -3.641220        -0.580060         3.797764
