19
Iteration:  4345charge 0 multiplicity 1
 C         1.688908        -0.648537        -0.314707
 C         0.281587        -0.658687        -0.265786
 C        -0.879331        -0.588384        -0.085667
 C        -2.263769        -0.100462        -0.222784
 C        -2.017639         1.290538        -0.930985
 O        -2.945031         0.144114         1.109927
 C        -3.439866        -1.005499         1.752499
 C        -4.044517        -0.555081         2.994849
 O        -3.534975        -2.231784         1.330399
 H         2.384789        -1.373169         0.230766
 H         1.982243        -1.158451        -1.307989
 H         2.407352         0.285000        -0.411235
 H        -2.895526        -0.905180        -0.823528
 H        -2.998357         1.790675        -1.044616
 H        -1.216936         1.658524        -0.446845
 H        -1.559142         1.075643        -1.895721
 H        -4.640472        -1.334841         3.435540
 H        -3.300620        -0.174521         3.691140
 H        -4.503608         0.387583         2.733564
