19
Iteration:  2465
 C         1.791798        -0.454239         0.168048
 C         0.290445        -0.289114         0.202920
 C        -0.911072        -0.133107         0.029433
 C        -2.248480        -0.080630        -0.403026
 C        -2.638024         1.183197        -1.171670
 O        -2.984180        -0.127631         0.873315
 C        -3.411998        -1.221035         1.511807
 C        -3.731427        -0.678701         2.994585
 O        -3.281708        -2.409315         1.217151
 H         2.122259        -1.516284        -0.148614
 H         2.252054         0.128670        -0.606203
 H         2.282658        -0.274681         1.042958
 H        -2.485471        -0.939360        -1.108569
 H        -2.817032         1.982452        -0.539204
 H        -1.906977         1.677412        -1.868634
 H        -3.510371         0.944919        -1.774527
 H        -4.549530        -1.211750         3.506530
 H        -2.751548        -0.780290         3.486890
 H        -4.180982         0.311615         2.901731
