19
Iteration:  1125charge 0 multiplicity 1
 C         1.712314         0.122119         0.386917
 C         0.364392        -0.060936        -0.072101
 C        -0.824119        -0.137226        -0.266139
 C        -2.271703        -0.204155        -0.314194
 C        -2.950080         0.897781        -1.128680
 O        -3.012348        -0.017376         1.022015
 C        -3.264344        -1.238984         1.564447
 C        -3.804085        -1.182916         2.986403
 O        -2.992157        -2.337784         1.086300
 H         2.044432        -0.846048         0.789143
 H         2.307560         0.253650        -0.615229
 H         1.809165         0.899209         1.057319
 H        -2.614051        -1.135459        -0.719950
 H        -2.658292         1.870642        -0.898937
 H        -2.600532         0.779737        -2.228386
 H        -3.985532         0.837891        -0.975959
 H        -3.128783        -1.800736         3.670816
 H        -3.908373        -0.207410         3.524947
 H        -4.828185        -1.657040         3.095862
