19
Iteration:    59charge 0 multiplicity 1
 C         1.784039         0.581181         0.267802
 C         0.388539         0.435860        -0.065666
 C        -0.751584         0.075911        -0.163082
 C        -2.127947        -0.325114        -0.214725
 C        -3.123230         0.634753        -0.895330
 O        -2.636051        -0.271313         1.201951
 C        -3.309654        -1.448144         1.479018
 C        -3.782276        -1.312762         2.857570
 O        -3.460532        -2.455017         0.804243
 H         2.055593        -0.050472         1.036309
 H         2.450464         0.371111        -0.609964
 H         2.089359         1.660126         0.713011
 H        -2.286588        -1.378675        -0.459934
 H        -3.262493         1.561022        -0.309049
 H        -2.742728         1.175023        -1.885559
 H        -4.115564         0.139821        -1.165841
 H        -4.653113        -1.943464         3.043235
 H        -3.035151        -1.699005         3.560895
 H        -3.977206        -0.263916         3.099470
