19
Iteration:   711charge 0 multiplicity 1
 C         1.985394         0.756585         0.063415
 C         0.565880         0.389632        -0.025808
 C        -0.579935         0.024203        -0.077124
 C        -2.016898        -0.401665        -0.174364
 C        -3.045549         0.306609        -1.082423
 O        -2.474056        -0.550995         1.238899
 C        -3.473925        -1.335308         1.577143
 C        -3.836547        -1.224912         3.054550
 O        -4.054607        -2.024810         0.801766
 H         2.385972         0.451305        -0.852547
 H         2.128015         1.818468         0.244258
 H         2.528694         0.101802         0.909902
 H        -1.936441        -1.401142        -0.648594
 H        -2.943464         1.460383        -1.059518
 H        -2.852259         0.010489        -2.083631
 H        -4.029467        -0.149999        -0.767846
 H        -4.371916        -2.117680         3.319901
 H        -3.082536        -0.969596         3.738189
 H        -4.648177        -0.513917         2.843525
