19
Iteration:  1327charge 0 multiplicity 1
 C         1.451692        -0.360669         0.474497
 C         0.172875        -0.356679        -0.226509
 C        -0.999041        -0.050751        -0.227000
 C        -2.428165        -0.014721        -0.451799
 C        -2.900946         1.185199        -1.208239
 O        -3.166273        -0.067502         0.938293
 C        -2.987966        -1.214702         1.669509
 C        -3.933102        -1.212086         2.919047
 O        -2.295294        -2.114476         1.319089
 H         2.155657        -0.089323        -0.190677
 H         1.328476         0.499662         1.272602
 H         1.719509        -1.355372         1.109412
 H        -2.680825        -0.998900        -0.974708
 H        -2.679900         2.010099        -0.423471
 H        -2.318483         1.270250        -2.126853
 H        -4.027175         1.169991        -1.404328
 H        -4.898980        -1.579295         2.514409
 H        -3.610822        -1.863616         3.751534
 H        -4.173199        -0.195389         3.273888
