19
Iteration:   539
 C         1.739569         0.594438         0.080456
 C         0.357629         0.055986         0.025052
 C        -0.832535        -0.224904        -0.097156
 C        -2.307975        -0.289952        -0.243847
 C        -2.726157         0.908669        -1.122331
 O        -3.096615        -0.190162         0.943308
 C        -3.340329        -1.396085         1.618062
 C        -3.805159        -1.236089         3.089495
 O        -3.082061        -2.415463         1.052168
 H         2.270539        -0.009295         1.011274
 H         2.292894         0.351709        -0.790049
 H         1.800222         1.608753         0.269847
 H        -2.572944        -1.290267        -0.693147
 H        -2.557774         1.878829        -0.537487
 H        -2.103158         0.732183        -1.955366
 H        -3.806022         1.001339        -1.361297
 H        -3.808768        -0.126696         3.440407
 H        -4.794674        -1.855116         3.177867
 H        -2.979924        -1.899687         3.627994
