19
Iteration:   478charge 0 multiplicity 1
 C         1.646461         0.335694         0.158501
 C         0.227757         0.043542         0.029950
 C        -0.950961        -0.181504        -0.173748
 C        -2.369916        -0.247904        -0.387672
 C        -2.864268         0.999996        -1.056904
 O        -3.052669        -0.159717         1.060701
 C        -3.191771        -1.426385         1.642158
 C        -3.955678        -1.202597         2.894888
 O        -2.638759        -2.400063         1.153454
 H         1.920577         0.500847         1.177089
 H         2.287000        -0.545948        -0.209677
 H         2.047120         1.333742        -0.425039
 H        -2.610720        -1.261283        -0.795910
 H        -2.557286         1.855638        -0.465242
 H        -2.242743         1.285844        -1.957751
 H        -3.944735         0.944916        -1.360989
 H        -3.494602        -0.412424         3.436314
 H        -4.960358        -0.972660         2.621358
 H        -3.962681        -1.977641         3.589056
