19
Iteration:  3142charge 0 multiplicity 1
 C         1.580717        -0.860531         0.438956
 C         0.270487        -0.482142        -0.049902
 C        -0.904901        -0.215467        -0.263127
 C        -2.296346        -0.063932        -0.470634
 C        -2.702525         1.227318        -1.216206
 O        -3.040797        -0.031446         0.808019
 C        -3.211167        -1.061686         1.684640
 C        -4.096810        -0.616711         2.807231
 O        -2.650519        -2.145650         1.499286
 H         1.396459        -1.323683         1.484235
 H         2.053539        -1.632081        -0.164590
 H         2.236082        -0.051470         0.663851
 H        -2.673797        -0.913934        -1.158833
 H        -3.893050         1.125816        -1.360556
 H        -2.763336         2.083192        -0.490321
 H        -2.209286         1.452622        -2.149271
 H        -3.616124         0.243952         3.279223
 H        -5.101021        -0.218159         2.524843
 H        -4.115457        -1.394828         3.601819
