19
Iteration:  3633
 C         2.107951        -0.057410         0.068405
 C         0.674932         0.016545        -0.093366
 C        -0.487052        -0.244260        -0.189549
 C        -1.847564        -0.707973        -0.162743
 C        -2.760847        -0.011352        -1.198805
 O        -2.459880        -0.514666         1.221184
 C        -3.734196        -0.831945         1.607752
 C        -3.631907        -0.734045         3.074003
 O        -4.764738        -1.082754         0.950189
 H         2.627913        -0.698310        -0.683265
 H         2.711103         0.873286         0.210421
 H         2.286234        -0.717109         0.975986
 H        -2.078635        -1.708723        -0.419628
 H        -3.753090        -0.462572        -1.279516
 H        -2.844812         0.989162        -0.784376
 H        -2.382834         0.083279        -2.237756
 H        -4.465305        -0.173731         3.480958
 H        -3.798400        -1.728803         3.543262
 H        -2.690730        -0.360731         3.499803
