19
Iteration:  1820charge 0 multiplicity 1
 C         1.984976         0.486813        -0.060998
 C         0.525028         0.262923        -0.115058
 C        -0.475765        -0.388189        -0.211153
 C        -1.904728        -0.725861        -0.162955
 C        -2.798671         0.321170        -0.940039
 O        -2.300916        -0.665842         1.307042
 C        -3.542465        -1.033623         1.644895
 C        -4.132664        -0.798162         3.028222
 O        -4.236069        -1.652120         0.794701
 H         2.447026        -0.316770        -0.576103
 H         2.341247         1.511516        -0.445245
 H         2.265335         0.444232         1.024943
 H        -2.103281        -1.775128        -0.329160
 H        -2.770046         1.302462        -0.505261
 H        -2.564170         0.309452        -2.060769
 H        -3.924063         0.057198        -0.897541
 H        -3.555358        -1.096216         3.925730
 H        -4.474505         0.273427         3.192187
 H        -5.034348        -1.464774         3.162252
