19
Iteration:  3097charge 0 multiplicity 1
 C         1.650223        -0.805172         0.373815
 C         0.357235        -0.357900         0.078015
 C        -0.792530        -0.128877        -0.215545
 C        -2.182711        -0.078563        -0.372921
 C        -2.839766         0.946666        -1.338092
 O        -2.875665         0.108331         0.969431
 C        -3.294045        -1.017299         1.648011
 C        -3.973570        -0.699866         2.951503
 O        -3.075885        -2.158666         1.209788
 H         1.718579        -1.052469         1.475070
 H         1.984690        -1.658300        -0.194715
 H         2.336593         0.031398         0.206212
 H        -2.608817        -1.086008        -0.589707
 H        -4.026651         0.959504        -1.421927
 H        -2.591589         1.979608        -1.097592
 H        -2.325937         0.632289        -2.228899
 H        -3.418779         0.022341         3.569848
 H        -4.829400        -0.057295         2.665039
 H        -4.194512        -1.603137         3.570561
