19
Iteration:  2985charge 0 multiplicity 1
 C         2.015268        -0.059885         0.187899
 C         0.497643        -0.210547        -0.105525
 C        -0.691227        -0.510696        -0.041133
 C        -2.158147        -0.483479        -0.206658
 C        -2.452644         0.728103        -1.201257
 O        -2.673929        -0.220431         1.083678
 C        -3.613958        -0.992648         1.599401
 C        -3.720507        -0.640659         3.063021
 O        -4.236657        -1.892223         0.968045
 H         2.262692         0.182146         1.150841
 H         2.438619        -1.030772         0.121941
 H         2.512035         0.292544        -0.635807
 H        -2.383396        -1.421681        -0.709840
 H        -3.436257         0.746024        -1.577116
 H        -2.496427         1.676448        -0.637952
 H        -1.743668         0.848739        -2.081505
 H        -2.798716        -0.929677         3.654909
 H        -3.924171         0.435277         3.214169
 H        -4.502663        -1.298739         3.440819
