19
Iteration:   118charge 0 multiplicity 1
 C         1.743912         0.432949         0.295769
 C         0.335724         0.214239         0.121200
 C        -0.839336         0.214157        -0.154025
 C        -2.301691        -0.083227        -0.279754
 C        -3.037407         0.922238        -1.240466
 O        -2.913579        -0.272919         0.990771
 C        -3.187508        -1.473863         1.573230
 C        -3.710565        -1.423376         3.008108
 O        -3.153225        -2.550759         1.044150
 H         2.231867        -0.666182         0.400736
 H         2.189813         0.990342        -0.537142
 H         1.810062         1.059834         1.232392
 H        -2.287804        -1.076551        -0.773250
 H        -2.606099         1.967333        -1.163785
 H        -2.892403         0.371661        -2.112744
 H        -4.120023         0.896175        -0.996649
 H        -4.611233        -2.061508         2.986350
 H        -2.827826        -1.893909         3.493131
 H        -3.945664        -0.394033         3.340741
