19
Iteration:  3998charge 0 multiplicity 1
 C         1.606602        -0.739763         0.215027
 C         0.258715        -0.484514        -0.075383
 C        -0.955954        -0.461151        -0.114817
 C        -2.303162        -0.117128        -0.333577
 C        -2.410042         1.308478        -1.108436
 O        -3.015111         0.156048         0.999807
 C        -3.332411        -1.050533         1.648051
 C        -3.433324        -0.822911         3.154895
 O        -3.522281        -2.099406         0.953947
 H         1.984344        -1.744091        -0.294878
 H         2.444077         0.009374         0.055687
 H         1.670440        -0.999882         1.295960
 H        -2.900058        -0.573501        -1.158483
 H        -3.485560         1.304077        -1.436889
 H        -2.159695         2.056494        -0.442806
 H        -1.874394         1.403065        -2.045202
 H        -2.444387        -1.152535         3.493917
 H        -3.652426         0.258355         3.312354
 H        -4.263523        -1.392395         3.643332
