19
Iteration:  1290
 C         1.497347        -0.389427         0.479012
 C         0.093383        -0.136541         0.169190
 C        -1.049386        -0.319075        -0.290926
 C        -2.528198        -0.122633        -0.522725
 C        -2.909216         1.212888        -1.088171
 O        -3.286368        -0.070128         0.815632
 C        -2.978471        -1.190934         1.589043
 C        -3.791771        -1.182685         2.806356
 O        -2.211124        -2.039568         1.354700
 H         2.057418        -0.650369        -0.575973
 H         2.118157         0.534233         0.857020
 H         1.755984        -1.231714         1.010825
 H        -2.990514        -0.976986        -0.971315
 H        -2.282486         1.971812        -0.701640
 H        -2.823959         1.295259        -2.180157
 H        -3.905392         1.478201        -0.804412
 H        -4.805453        -0.763883         2.560133
 H        -3.872557        -2.273736         3.159508
 H        -3.370301        -0.422855         3.538496
