19
Iteration:  4476charge 0 multiplicity 1
 C         2.035463        -0.780793        -0.306699
 C         0.678209        -0.315985        -0.294581
 C        -0.491989        -0.188052        -0.175226
 C        -1.890955        -0.437562        -0.121613
 C        -2.917256         0.573509        -0.813476
 O        -2.414430        -0.214070         1.423117
 C        -3.601257        -0.767173         1.646886
 C        -3.979365        -0.653249         3.114725
 O        -4.290132        -1.353635         0.804727
 H         2.526355        -0.766222         0.655406
 H         1.939954        -1.810633        -0.668615
 H         2.646856        -0.320292        -1.166579
 H        -2.258377        -1.550028        -0.407412
 H        -3.865451         0.045014        -0.838663
 H        -3.222961         1.368567        -0.257442
 H        -2.604771         0.848023        -1.850111
 H        -3.288849        -1.322086         3.629908
 H        -3.768466         0.266123         3.622610
 H        -4.927255        -1.147917         3.353912
