19
Iteration:  3792
 C         2.004497         0.183376        -0.659722
 C         0.713956        -0.343881         0.008918
 C        -0.469944        -0.685607         0.174399
 C        -1.863893        -0.696649         0.011116
 C        -2.376354         0.507907        -0.806502
 O        -2.416880        -0.638496         1.410019
 C        -3.708640        -0.924696         1.584205
 C        -4.197795        -0.508829         2.959858
 O        -4.556170        -1.332256         0.778186
 H         2.184310        -0.214355        -1.626984
 H         1.936977         1.263090        -0.733550
 H         2.767911        -0.030478         0.017448
 H        -2.283296        -1.564336        -0.538487
 H        -3.544286         0.441557        -1.030442
 H        -2.091533         1.379367        -0.200045
 H        -1.834912         0.677364        -1.739890
 H        -5.302155        -0.509669         2.991648
 H        -3.770304        -1.166017         3.722145
 H        -3.829017         0.529109         3.191947
