19
Iteration:  3293
 C         1.637614        -0.957884         0.174340
 C         0.225230        -0.629314         0.017705
 C        -0.886002        -0.323263        -0.346794
 C        -2.334372         0.016806        -0.500627
 C        -2.618503         1.329269        -1.136058
 O        -3.133962        -0.085237         0.784711
 C        -3.186232        -0.993445         1.780833
 C        -4.411724        -0.719608         2.640367
 O        -2.395792        -1.921867         1.870819
 H         1.769997        -2.024349         0.363616
 H         2.286792        -0.680126        -0.635585
 H         2.014443        -0.198265         0.912746
 H        -2.586308        -0.784280        -1.190541
 H        -3.660952         1.464689        -1.539510
 H        -2.384456         2.062957        -0.396753
 H        -1.896482         1.467449        -1.872800
 H        -4.963586         0.196628         2.425560
 H        -5.088965        -1.614691         2.504714
 H        -4.197603        -0.782628         3.720493
