19
Iteration:  1012charge 0 multiplicity 1
 C         1.905587         0.503498         0.017929
 C         0.508719         0.191848        -0.203512
 C        -0.694132        -0.026756        -0.070011
 C        -2.128578        -0.372284        -0.075349
 C        -2.765305         0.605994        -0.972822
 O        -2.746607        -0.258960         1.182093
 C        -3.473102        -1.307009         1.555141
 C        -3.958062        -1.108524         3.014872
 O        -3.677845        -2.347476         0.861483
 H         2.165245         0.624591         1.171091
 H         2.636359        -0.152470        -0.317213
 H         2.109331         1.461581        -0.410787
 H        -2.260131        -1.367425        -0.412678
 H        -2.954340         1.601691        -0.512478
 H        -2.146566         0.717506        -1.789041
 H        -3.720327         0.105008        -1.238840
 H        -4.955760        -1.495839         3.172570
 H        -3.307379        -1.894922         3.471670
 H        -3.619775        -0.085270         3.287029
