19
Iteration:   873
 C         2.021962         1.001775        -0.246016
 C         0.587873         0.453358        -0.038235
 C        -0.514108        -0.085248        -0.061410
 C        -1.883659        -0.718816        -0.133991
 C        -2.719483         0.270494        -0.906096
 O        -2.374725        -0.779973         1.389113
 C        -3.637567        -1.261924         1.605216
 C        -4.170321        -1.219489         3.057058
 O        -4.244732        -1.812231         0.701259
 H         2.036298         2.084652        -0.373385
 H         2.819429         0.699123         0.596995
 H         2.319719         0.616092        -1.169226
 H        -1.904986        -1.799400        -0.366876
 H        -2.214209         1.255900        -0.815860
 H        -2.672070         0.125195        -1.930884
 H        -3.803664         0.291203        -0.624845
 H        -3.960279        -0.319991         3.565619
 H        -5.215399        -1.094183         3.014322
 H        -3.813302        -2.014548         3.660183
