19
Iteration:  2075
 C         1.925898        -0.334345         0.213496
 C         0.473147        -0.249481        -0.077957
 C        -0.740978        -0.057510        -0.091261
 C        -2.243474        -0.111527        -0.397552
 C        -2.859336         1.043209        -1.211037
 O        -2.990013        -0.043712         0.938556
 C        -3.356233        -1.195622         1.641667
 C        -3.982367        -0.851606         2.957942
 O        -3.240711        -2.345880         1.308613
 H         2.411435         0.571991         0.144973
 H         2.055696        -0.617069         1.241780
 H         2.495960        -1.203759        -0.352988
 H        -2.444057        -1.098429        -0.849473
 H        -2.976046         1.933776        -0.584973
 H        -2.209281         1.140889        -2.119352
 H        -3.808112         0.625745        -1.508271
 H        -4.068627        -1.753830         3.602034
 H        -3.524989        -0.190046         3.703577
 H        -4.933730        -0.433506         2.664338
