19
Iteration:   263
 C         1.490095         0.011553         0.439319
 C         0.157874         0.100820        -0.007127
 C        -0.993357        -0.151584        -0.142276
 C        -2.368281        -0.149374        -0.496820
 C        -3.095939         1.178172        -0.976847
 O        -3.261772        -0.366953         0.780551
 C        -3.007273        -1.341889         1.576337
 C        -3.802631        -1.210285         2.852029
 O        -2.219422        -2.239862         1.270031
 H         2.103938         0.335455        -0.470644
 H         1.622641         0.687061         1.271192
 H         1.614255        -0.898903         0.743953
 H        -2.626934        -1.004107        -1.169589
 H        -2.757052         1.919775        -0.349967
 H        -2.924699         1.437120        -1.976666
 H        -4.082978         1.083756        -0.659367
 H        -4.208920        -2.208966         2.962147
 H        -3.115701        -0.777213         3.574528
 H        -4.559998        -0.465387         2.642304
