19
Iteration:  3718
 C         1.973146         0.305139        -0.430009
 C         0.727785        -0.320447        -0.163601
 C        -0.370046        -0.700867         0.088109
 C        -1.842896        -0.897146         0.023491
 C        -2.554050         0.075454        -0.899129
 O        -2.367315        -0.478325         1.415268
 C        -3.753132        -0.662998         1.584969
 C        -4.133374        -0.828809         3.084563
 O        -4.550459        -0.897205         0.705353
 H         2.320031         0.192911        -1.454497
 H         1.688386         1.439149        -0.377602
 H         2.675251         0.108188         0.431970
 H        -2.170549        -1.974868        -0.258338
 H        -3.708555        -0.004160        -0.854287
 H        -2.085670         0.958647        -0.639080
 H        -2.157953        -0.106981        -1.904723
 H        -5.191969        -0.671858         3.115025
 H        -3.799774        -1.815640         3.252078
 H        -3.564760        -0.079526         3.623923
