19
Iteration:  3936charge 0 multiplicity 1
 C         2.014681        -0.675405        -0.040316
 C         0.501718        -0.523177        -0.019186
 C        -0.693121        -0.171150        -0.100941
 C        -2.150641        -0.109702        -0.244323
 C        -2.793611         1.035891        -1.055890
 O        -2.679189        -0.021686         1.189200
 C        -3.474685        -1.036905         1.624730
 C        -3.846834        -0.812504         3.112096
 O        -3.848984        -1.914487         0.895927
 H         2.197717        -1.403834        -0.789968
 H         2.471716         0.289431        -0.310480
 H         2.361060        -1.077989         0.906153
 H        -2.488284        -1.112040        -0.588164
 H        -3.880384         0.759456        -1.119381
 H        -2.713027         2.136638        -0.827273
 H        -2.449856         0.879483        -2.160887
 H        -3.775092        -1.750682         3.702190
 H        -3.177530        -0.065269         3.586953
 H        -4.888165        -0.488882         3.244377
