19
Iteration:  1921charge 0 multiplicity 1
 C         1.920313         0.228693         0.063236
 C         0.506287         0.128097        -0.045349
 C        -0.581596        -0.324840        -0.289782
 C        -2.003997        -0.514846        -0.241603
 C        -2.701070         0.572401        -1.153239
 O        -2.542044        -0.278997         1.213730
 C        -3.544765        -1.170699         1.672767
 C        -4.030301        -0.775478         3.059049
 O        -3.980328        -2.060752         0.967710
 H         2.482026         0.194610        -0.774202
 H         2.175901         1.020017         0.725162
 H         2.189693        -0.784331         0.599648
 H        -2.234733        -1.578492        -0.366422
 H        -2.683422         1.628150        -0.626654
 H        -2.254069         0.663829        -2.086760
 H        -3.753353         0.294902        -1.263473
 H        -4.291529         0.309433         3.100949
 H        -4.850770        -1.421127         3.413003
 H        -3.301383        -0.953307         3.908866
