19
Iteration:   860charge 0 multiplicity 1
 C         1.862987         1.014088        -0.252996
 C         0.608472         0.403228        -0.039922
 C        -0.416209        -0.236494        -0.051042
 C        -1.835783        -0.661682        -0.031117
 C        -2.745436         0.285322        -0.911925
 O        -2.353968        -0.708854         1.402848
 C        -3.604337        -1.280536         1.581932
 C        -4.120659        -1.187165         2.997050
 O        -4.282611        -1.791186         0.680154
 H         1.774517         2.170816        -0.417407
 H         2.512688         0.829167         0.691401
 H         2.368055         0.562985        -0.997839
 H        -1.929364        -1.599778        -0.498266
 H        -2.476556         1.300180        -0.695069
 H        -2.683378         0.018014        -1.920835
 H        -3.795286         0.121147        -0.647192
 H        -3.486355        -0.457354         3.478342
 H        -5.194034        -1.122869         3.026386
 H        -3.993631        -2.209226         3.469342
