19
Iteration:  4268
 C         1.518679        -1.167469        -0.075362
 C         0.172961        -0.778707        -0.071528
 C        -0.956106        -0.306666        -0.148143
 C        -2.325418         0.153787        -0.317280
 C        -2.523631         1.430640        -1.089735
 O        -2.953607         0.163893         1.015368
 C        -3.242686        -0.995040         1.703560
 C        -4.044462        -0.670379         2.980217
 O        -2.774238        -2.102810         1.321455
 H         1.567889        -2.188752         0.384205
 H         1.976107        -1.237884        -1.077942
 H         2.278524        -0.626238         0.631918
 H        -2.877791        -0.655816        -0.911522
 H        -3.627048         1.713662        -0.982509
 H        -2.081599         2.224937        -0.577769
 H        -2.092489         1.304834        -2.085917
 H        -5.091445        -1.006058         2.884483
 H        -3.675541        -1.221180         3.840349
 H        -4.004714         0.389523         3.051556
