19
Iteration:  4621
 C         1.721786        -0.080442        -0.120317
 C         0.472256        -0.736485        -0.102001
 C        -0.723198        -0.881377        -0.398199
 C        -2.122395        -0.554812        -0.208004
 C        -2.390471         0.724208        -0.952544
 O        -2.304792        -0.626948         1.265020
 C        -3.513223        -0.778955         1.681152
 C        -3.650392        -0.730487         3.218254
 O        -4.478987        -0.894158         0.932313
 H         1.660098         1.054414        -0.014890
 H         2.556202        -0.503772         0.440478
 H         1.998368         0.015230        -1.233830
 H        -2.769385        -1.414194        -0.718538
 H        -3.444890         0.888272        -0.854195
 H        -1.864653         1.622835        -0.545419
 H        -2.163887         0.478713        -2.037368
 H        -2.675486        -0.598012         3.726536
 H        -3.993803         0.301056         3.375056
 H        -4.409463        -1.384477         3.605301
