19
Iteration:   493charge 0 multiplicity 1
 C         1.615442         0.397091         0.132948
 C         0.242946        -0.042233         0.058401
 C        -0.957682        -0.154810        -0.141356
 C        -2.442873        -0.207132        -0.238629
 C        -2.762354         1.015835        -1.156319
 O        -2.996211        -0.189382         1.009601
 C        -3.098306        -1.346830         1.629593
 C        -3.915848        -1.233595         2.911253
 O        -2.788012        -2.467695         1.174100
 H         2.032594         0.562937         1.146783
 H         2.309476        -0.173677        -0.446389
 H         1.636364         1.405923        -0.342061
 H        -2.794812        -1.017801        -0.803635
 H        -2.822833         1.939309        -0.582982
 H        -1.998441         1.003536        -1.967551
 H        -3.740546         0.995651        -1.566321
 H        -3.633375        -0.316799         3.491862
 H        -4.977082        -1.207261         2.592470
 H        -3.721506        -2.177148         3.513277
