19
Iteration:   165charge 0 multiplicity 1
 C         1.610256         0.351107         0.359340
 C         0.183318         0.169333         0.110435
 C        -0.965325        -0.149026        -0.090536
 C        -2.383982        -0.194270        -0.252971
 C        -2.930701         0.936429        -1.112596
 O        -3.142695        -0.159298         0.915701
 C        -3.164337        -1.422661         1.542102
 C        -3.620856        -1.300837         3.027934
 O        -2.724556        -2.378279         0.901817
 H         2.192024        -0.560703        -0.299264
 H         1.846838         1.314041        -0.168545
 H         1.855485         0.430333         1.334134
 H        -2.496208        -1.233662        -0.637457
 H        -2.782583         1.783097        -0.543584
 H        -2.371857         0.924159        -1.971815
 H        -3.938105         0.819379        -1.318006
 H        -4.516923        -1.920085         3.047610
 H        -2.790604        -1.706750         3.618469
 H        -3.950937        -0.276188         3.165192
