19
Iteration:  2384
 C         1.534555        -0.557986         0.474715
 C         0.233994        -0.492629        -0.169193
 C        -0.945166        -0.260685        -0.277342
 C        -2.412118        -0.032507        -0.302837
 C        -2.747415         1.135244        -1.194581
 O        -2.915995         0.139198         1.097622
 C        -3.027287        -1.069252         1.623277
 C        -4.033844        -0.988870         2.861198
 O        -2.777040        -2.156070         1.140232
 H         1.552718        -1.336376         1.095473
 H         2.365434        -0.580928        -0.253188
 H         1.658377         0.397872         1.073431
 H        -2.888521        -0.880240        -0.677590
 H        -1.989147         1.980479        -1.082307
 H        -2.585893         0.704923        -2.141170
 H        -3.688480         1.664788        -1.145553
 H        -5.014514        -0.768191         2.460231
 H        -4.042317        -1.839627         3.517140
 H        -3.588613        -0.208433         3.482071
