19
Iteration:  3288
 C         1.618566        -0.943675         0.212428
 C         0.244528        -0.625578        -0.009668
 C        -0.920460        -0.351313        -0.323127
 C        -2.350380        -0.024304        -0.539505
 C        -2.590929         1.358463        -1.131143
 O        -3.162408        -0.066217         0.757385
 C        -3.175942        -0.998533         1.837488
 C        -4.420563        -0.714062         2.649448
 O        -2.354396        -1.930161         1.849235
 H         1.798140        -2.010921         0.434561
 H         2.166445        -0.689180        -0.753790
 H         2.091217        -0.284244         0.968541
 H        -2.689422        -0.929591        -1.118789
 H        -3.593868         1.572426        -1.475965
 H        -2.499778         2.158015        -0.240290
 H        -1.818774         1.522180        -2.011728
 H        -4.976870         0.195032         2.395402
 H        -5.043643        -1.553519         2.385883
 H        -4.093590        -0.786129         3.696157
