19
Iteration:  1818charge 0 multiplicity 1
 C         1.981608         0.483268        -0.047724
 C         0.520685         0.276645        -0.125090
 C        -0.475876        -0.406716        -0.203450
 C        -1.914692        -0.720954        -0.166783
 C        -2.787163         0.311852        -0.928149
 O        -2.295788        -0.662933         1.303656
 C        -3.550798        -1.032886         1.652644
 C        -4.149278        -0.811922         3.036566
 O        -4.228780        -1.639356         0.793388
 H         2.497015        -0.358976        -0.652975
 H         2.282305         1.513009        -0.467158
 H         2.247978         0.532024         0.933560
 H        -2.080403        -1.761814        -0.303398
 H        -2.759674         1.300124        -0.559840
 H        -2.531820         0.312537        -2.089656
 H        -3.877530         0.080193        -0.958270
 H        -3.549628        -1.152006         3.911186
 H        -4.389006         0.259152         3.175610
 H        -5.036432        -1.420389         3.158308
