19
Iteration:  1089
 C         1.753639         0.267331         0.223045
 C         0.355310         0.055938         0.032409
 C        -0.845523        -0.082051        -0.071338
 C        -2.273716        -0.196240        -0.269947
 C        -2.884387         0.874539        -1.165978
 O        -2.831852        -0.182222         1.053636
 C        -3.242621        -1.360817         1.601932
 C        -3.804664        -1.058240         2.976474
 O        -3.294396        -2.455167         0.976213
 H         2.177300        -0.573535         0.968917
 H         2.241792         0.045294        -0.645451
 H         2.189109         1.182883         0.535631
 H        -2.446965        -1.184219        -0.649372
 H        -2.118264         1.666590        -1.188988
 H        -3.075082         0.491420        -2.077491
 H        -3.895521         1.189811        -0.841379
 H        -3.771070        -2.006793         3.574902
 H        -3.233996        -0.205296         3.409952
 H        -4.837340        -0.763544         2.833357
