19
Iteration:  2794
 C         2.054520         0.183956        -0.433249
 C         0.738953        -0.151592        -0.007394
 C        -0.418698        -0.395801         0.301977
 C        -1.901670        -0.710854         0.068861
 C        -2.475490         0.284311        -1.024478
 O        -2.530033        -0.378277         1.296222
 C        -3.793899        -0.894886         1.581162
 C        -4.026357        -0.897259         3.000136
 O        -4.570691        -1.322837         0.683506
 H         2.237601         1.317700        -0.591879
 H         2.942971         0.021386         0.294482
 H         2.329133        -0.537617        -1.307020
 H        -2.071988        -1.788430         0.009828
 H        -3.289822        -0.277056        -1.592307
 H        -3.066666         1.051736        -0.527554
 H        -1.739179         0.740274        -1.713111
 H        -5.013833        -1.216380         3.450252
 H        -3.206357        -1.529768         3.409182
 H        -3.761614         0.099126         3.372252
