19
Iteration:   243charge 0 multiplicity 1
 C         1.608587         0.124223         0.490217
 C         0.216330         0.031095        -0.102840
 C        -1.026823        -0.092722        -0.182158
 C        -2.535516        -0.157565        -0.467259
 C        -3.031496         1.177359        -0.946634
 O        -3.265246        -0.290823         0.712031
 C        -3.041883        -1.397632         1.546937
 C        -3.779923        -1.219174         2.931752
 O        -2.298721        -2.355982         1.287601
 H         2.507217         0.209450        -0.330469
 H         1.611549         1.051752         1.068151
 H         1.771856        -0.712893         1.139708
 H        -2.765931        -0.985716        -1.178803
 H        -2.861940         1.929046        -0.263524
 H        -2.539369         1.383926        -1.906046
 H        -4.039332         1.017903        -1.070485
 H        -4.320452        -2.163201         3.082761
 H        -2.964895        -1.022106         3.619008
 H        -4.363331        -0.300491         2.913659
