19
Iteration:  4902
 C         2.010455        -0.798208        -0.414374
 C         0.502913        -0.660187        -0.301440
 C        -0.732589        -0.483843        -0.184089
 C        -2.178251        -0.094762        -0.251682
 C        -2.451935         1.308368        -0.827202
 O        -2.749903        -0.079757         1.187028
 C        -3.601028        -0.975185         1.733940
 C        -3.996711        -0.430942         3.066340
 O        -3.833467        -2.133128         1.250103
 H         2.315590        -0.536032        -1.475752
 H         2.346683         0.002083         0.258473
 H         2.393249        -1.836993        -0.114326
 H        -2.666774        -0.992567        -0.733000
 H        -3.410198         1.438248        -1.317350
 H        -2.341369         1.971542         0.016846
 H        -1.688886         1.471110        -1.536818
 H        -4.625829        -1.077477         3.755463
 H        -3.149298        -0.247195         3.733277
 H        -4.583398         0.480925         2.887199
