19
Iteration:   626charge 0 multiplicity 1
 C         1.912180         0.500435         0.177534
 C         0.486178         0.294407        -0.032162
 C        -0.717862         0.160148        -0.182762
 C        -2.127470        -0.290155        -0.236455
 C        -3.065020         0.536475        -1.064782
 O        -2.690221        -0.299840         1.105029
 C        -3.339500        -1.359102         1.595131
 C        -3.826766        -1.198815         2.971854
 O        -3.598162        -2.374533         0.959749
 H         2.570313        -0.484878         0.034117
 H         2.296993         1.179138        -0.522670
 H         2.038657         0.938448         1.207514
 H        -2.175806        -1.237154        -0.727413
 H        -3.336671         1.505031        -0.552564
 H        -2.747169         0.691793        -2.061006
 H        -4.008272        -0.042217        -1.211295
 H        -4.953478        -1.023564         3.044347
 H        -3.798930        -2.214048         3.582639
 H        -3.224328        -0.586078         3.742619
