19
Iteration:  4697
 C         2.111839        -0.490100        -0.214780
 C         0.669565        -0.358189        -0.400120
 C        -0.546987        -0.445800        -0.274816
 C        -1.989391        -0.495481        -0.128922
 C        -2.751514         0.624358        -0.838330
 O        -2.371414        -0.708468         1.360027
 C        -3.674300        -0.838700         1.696499
 C        -3.733433        -0.575465         3.119118
 O        -4.635828        -1.021500         0.942840
 H         2.550888         0.523939        -0.241147
 H         2.189568        -0.951606         0.738581
 H         2.736168        -0.948007        -1.033194
 H        -2.316660        -1.460272        -0.711200
 H        -3.791205         0.231888        -0.832464
 H        -2.626964         1.644851        -0.329020
 H        -2.423709         0.599946        -1.980692
 H        -2.695679        -0.576970         3.561413
 H        -4.163782         0.445907         3.192491
 H        -4.490958        -1.203441         3.606113
