19
Iteration:  3758
 C         1.899858         0.326524        -0.587171
 C         0.651619        -0.299660        -0.170344
 C        -0.430471        -0.739263         0.109004
 C        -1.895079        -0.773845         0.078174
 C        -2.182773         0.296638        -0.913363
 O        -2.415108        -0.692007         1.524161
 C        -3.813623        -0.845017         1.574384
 C        -4.194262        -0.619339         3.070567
 O        -4.528931        -1.089373         0.681176
 H         2.304534         0.023237        -1.543800
 H         1.792740         1.373157        -0.434863
 H         2.609196         0.107335         0.165050
 H        -2.371466        -1.718020        -0.284386
 H        -3.326261         0.730687        -0.923909
 H        -1.731729         1.333123        -0.717260
 H        -1.827200        -0.083692        -1.873045
 H        -5.294556        -0.592388         3.317736
 H        -3.889814        -1.411269         3.787652
 H        -3.699154         0.248894         3.611617
