19
Iteration:   783
 C         1.790405         1.070850        -0.131612
 C         0.550685         0.251404        -0.040498
 C        -0.469763        -0.399262        -0.039359
 C        -1.912498        -0.613060        -0.079806
 C        -2.646956         0.445558        -1.132038
 O        -2.456006        -0.578526         1.372557
 C        -3.502805        -1.282895         1.582531
 C        -3.933474        -1.251593         2.991831
 O        -4.301191        -1.902828         0.839744
 H         1.658863         1.646247        -1.173490
 H         1.774450         1.784821         0.808199
 H         2.592548         0.457474        -0.183013
 H        -2.159188        -1.584003        -0.474128
 H        -2.778384         1.298002        -0.525134
 H        -1.996929         0.825955        -1.952442
 H        -3.537440         0.017789        -1.512260
 H        -3.297309        -1.801342         3.751166
 H        -3.803189        -0.229744         3.378756
 H        -4.950241        -1.719334         2.998152
