19
Iteration:  2025charge 0 multiplicity 1
 C         1.797096        -0.174299         0.064000
 C         0.387077         0.038249         0.055417
 C        -0.795819        -0.184573         0.006507
 C        -2.241689        -0.286788        -0.233800
 C        -2.615627         0.799144        -1.227729
 O        -2.889107        -0.103437         1.011832
 C        -3.347191        -1.168992         1.629050
 C        -3.912769        -0.817047         2.999281
 O        -3.453349        -2.231092         1.057322
 H         2.428686         0.542633        -0.586706
 H         2.302315        -0.129981         1.070302
 H         1.891372        -1.162565        -0.231095
 H        -2.470553        -1.373830        -0.448735
 H        -2.292579         1.619488        -0.660727
 H        -1.963950         0.660960        -2.141683
 H        -3.708207         0.738237        -1.503664
 H        -4.745810        -1.439751         3.289024
 H        -3.241674        -1.172752         3.818601
 H        -4.076289         0.265217         3.094466
