19
Iteration:  1441charge 0 multiplicity 1
 C         1.759590        -0.125041         0.098866
 C         0.361487        -0.090578        -0.026176
 C        -0.852206         0.023810        -0.026750
 C        -2.278547        -0.032994        -0.201731
 C        -2.724206         1.002661        -1.321446
 O        -3.117050        -0.082763         1.034471
 C        -3.240779        -1.312559         1.656878
 C        -3.930524        -1.107275         3.006181
 O        -3.024797        -2.402591         1.181643
 H         2.321668         0.925901         0.006096
 H         2.036304        -0.497006         1.045858
 H         2.272640        -0.896501        -0.608271
 H        -2.565664        -0.999429        -0.691065
 H        -2.435361         2.052131        -1.229047
 H        -2.258687         0.682359        -2.395702
 H        -3.824885         1.012677        -1.511224
 H        -3.467570        -1.670778         3.831051
 H        -4.081129        -0.045320         3.266499
 H        -4.957947        -1.437449         2.926736
