19
Iteration:   487charge 0 multiplicity 1
 C         1.649815         0.382878         0.146346
 C         0.231211        -0.007866         0.045547
 C        -0.953995        -0.150064        -0.158627
 C        -2.407608        -0.231407        -0.345512
 C        -2.799345         1.015960        -1.096274
 O        -3.027024        -0.176156         1.060508
 C        -3.137627        -1.388043         1.634824
 C        -3.918727        -1.229764         2.900914
 O        -2.720086        -2.428897         1.164934
 H         1.989419         0.479636         1.255995
 H         2.280698        -0.406383        -0.363080
 H         1.674520         1.351598        -0.429372
 H        -2.863786        -1.191945        -0.836044
 H        -2.739275         1.931417        -0.420241
 H        -2.098262         0.898254        -1.905690
 H        -3.831443         0.952253        -1.576082
 H        -3.637644        -0.256339         3.326746
 H        -4.978563        -0.993757         2.632621
 H        -3.885224        -2.139329         3.506331
