19
Iteration:  3316
 C         1.670588        -0.975604         0.153475
 C         0.319683        -0.624361        -0.078614
 C        -0.819793        -0.162394        -0.209652
 C        -2.285834        -0.031113        -0.435015
 C        -2.681588         1.247195        -1.182259
 O        -3.075777         0.076506         0.813338
 C        -3.255338        -1.061661         1.734247
 C        -4.411039        -0.733137         2.562329
 O        -2.533675        -1.988224         1.933191
 H         1.749436        -2.085223         0.068041
 H         2.194758        -0.654382        -0.737093
 H         2.222600        -0.351554         0.865007
 H        -2.403567        -0.968200        -0.970674
 H        -3.806614         1.162095        -1.197571
 H        -2.456969         2.094063        -0.628975
 H        -2.303662         1.349924        -2.129075
 H        -4.960361         0.199182         2.390299
 H        -5.062708        -1.662023         2.651561
 H        -3.933671        -0.732303         3.551840
