19
Iteration:  3638
 C         2.114294        -0.052216         0.069269
 C         0.701984         0.033062        -0.114565
 C        -0.492945        -0.240059        -0.160553
 C        -1.885759        -0.746309        -0.096801
 C        -2.725237        -0.015373        -1.213296
 O        -2.439830        -0.530574         1.187295
 C        -3.714397        -0.797333         1.604536
 C        -3.672191        -0.752742         3.088755
 O        -4.764313        -1.065413         0.957521
 H         2.366839        -0.648683        -0.842812
 H         2.625740         0.897069         0.114109
 H         2.321198        -0.679105         0.906221
 H        -2.118508        -1.842708        -0.384365
 H        -3.745878        -0.434376        -1.215520
 H        -2.982644         1.046545        -0.733992
 H        -2.214284         0.078724        -2.208663
 H        -4.524150        -0.156088         3.482129
 H        -3.811611        -1.822941         3.403949
 H        -2.683057        -0.359120         3.352634
