19
Iteration:  3338charge 0 multiplicity 1
 C         1.748438        -0.989553         0.039307
 C         0.375543        -0.477676        -0.103203
 C        -0.795934        -0.170327        -0.047612
 C        -2.272352        -0.092198        -0.352416
 C        -2.702989         1.158293        -1.190392
 O        -3.043665         0.041728         0.882750
 C        -3.205007        -0.981089         1.785365
 C        -4.496975        -0.684634         2.640364
 O        -2.602274        -1.988981         1.710348
 H         1.581190        -2.122546         0.016046
 H         2.528732        -0.737052        -0.655435
 H         2.151302        -0.535727         0.985638
 H        -2.557160        -1.088047        -0.735968
 H        -3.857715         1.056862        -1.145172
 H        -2.479962         2.150441        -1.001481
 H        -2.484953         0.895637        -2.171398
 H        -5.000379         0.135566         2.096213
 H        -5.112593        -1.639293         2.525151
 H        -4.309016        -0.438164         3.681472
