19
Iteration:  2869
 C         2.134237         0.189036        -0.207778
 C         0.632245         0.045990        -0.175540
 C        -0.468748        -0.500852        -0.057615
 C        -1.844936        -0.743923        -0.095919
 C        -2.626671         0.226266        -0.865130
 O        -2.318437        -0.686956         1.420204
 C        -3.735157        -0.836937         1.626415
 C        -4.220774        -0.776291         3.036020
 O        -4.478520        -1.164197         0.673542
 H         2.376441         1.091486         0.155942
 H         2.812819        -0.490046         0.395385
 H         2.578832         0.119785        -1.259637
 H        -1.983325        -1.800126        -0.370264
 H        -3.731575         0.142298        -0.746713
 H        -2.386289         1.256693        -0.692975
 H        -2.339411        -0.033276        -1.897347
 H        -4.529051        -1.775964         3.379391
 H        -3.485661        -0.267409         3.630834
 H        -5.114129        -0.190282         3.099370
