19
Iteration:  2152charge 0 multiplicity 1
 C         1.622359        -0.442633         0.356162
 C         0.220878        -0.273355        -0.094439
 C        -0.994629        -0.346841        -0.282356
 C        -2.356307        -0.062332        -0.341588
 C        -2.661221         1.121570        -1.202741
 O        -2.926387         0.048553         1.004561
 C        -3.172123        -1.088497         1.668145
 C        -4.113976        -1.025968         2.888275
 O        -2.749064        -2.132970         1.279355
 H         2.045819         0.360755         0.869522
 H         1.634972        -1.333276         0.953121
 H         2.341672        -0.678863        -0.608894
 H        -2.796505        -0.990333        -0.722491
 H        -2.038777         1.937200        -0.946465
 H        -2.425924         0.586912        -2.189613
 H        -3.653097         1.546768        -1.032783
 H        -3.514277        -0.860725         3.829596
 H        -4.785080        -0.171026         2.665077
 H        -4.620883        -1.962030         3.063671
