19
Iteration:   786charge 0 multiplicity 1
 C         1.762862         1.084255        -0.162528
 C         0.560897         0.224446        -0.029992
 C        -0.470504        -0.410291        -0.055607
 C        -1.927157        -0.614587        -0.054576
 C        -2.636331         0.451843        -1.128311
 O        -2.453943        -0.577055         1.376103
 C        -3.505666        -1.300860         1.578951
 C        -3.947223        -1.258008         3.004475
 O        -4.278996        -1.872636         0.838372
 H         1.662335         1.690511        -0.987641
 H         1.809870         1.769108         0.802210
 H         2.719950         0.549065        -0.191923
 H        -2.170111        -1.661265        -0.476059
 H        -2.811247         1.365154        -0.457991
 H        -1.994331         0.738959        -1.899995
 H        -3.516263        -0.045987        -1.604086
 H        -3.218756        -1.731926         3.560539
 H        -3.992267        -0.264943         3.319031
 H        -4.909708        -1.688672         3.000970
