19
Iteration:  1546
 C         1.945798         0.373548         0.100178
 C         0.581922        -0.052595        -0.096409
 C        -0.637584        -0.183017        -0.280871
 C        -2.107853        -0.360894        -0.332030
 C        -2.754688         0.897787        -0.991466
 O        -2.641770        -0.353154         1.086770
 C        -3.484797        -1.290436         1.635206
 C        -4.007436        -0.923518         2.983401
 O        -3.858665        -2.344073         1.161538
 H         2.067082         1.175668         0.761123
 H         2.615506        -0.509868         0.403134
 H         2.280323         0.740793        -0.929231
 H        -2.443403        -1.301969        -0.858023
 H        -2.270047         1.725227        -0.521074
 H        -2.470794         0.991310        -2.093395
 H        -3.799432         0.934682        -0.842521
 H        -3.535325        -0.099660         3.566506
 H        -5.058151        -0.582026         2.978736
 H        -3.904023        -1.810004         3.664334
