19
Iteration:  3270
 C         1.584704        -0.922057         0.250428
 C         0.185770        -0.570287        -0.081346
 C        -1.035740        -0.475822        -0.190087
 C        -2.418516        -0.139296        -0.506005
 C        -2.488752         1.365422        -1.062362
 O        -3.261659        -0.012295         0.700292
 C        -3.118151        -0.950184         1.664396
 C        -4.278320        -0.767837         2.645370
 O        -2.285940        -1.873760         1.839659
 H         1.504036        -1.931253         0.582651
 H         2.381577        -0.876227        -0.483469
 H         1.952866        -0.130976         1.003688
 H        -2.835349        -0.799311        -1.272449
 H        -3.532709         1.480137        -1.417145
 H        -2.262020         2.018203        -0.184113
 H        -1.759241         1.632913        -1.829490
 H        -4.641220         0.252551         2.462492
 H        -5.140058        -1.428735         2.432758
 H        -4.151123        -0.855247         3.751707
