19
Iteration:  2153
 C         1.618860        -0.445800         0.358851
 C         0.230385        -0.277592        -0.098296
 C        -0.989539        -0.343758        -0.291662
 C        -2.354307        -0.060152        -0.342140
 C        -2.654036         1.123508        -1.203181
 O        -2.936636         0.055097         1.002374
 C        -3.178411        -1.092395         1.664575
 C        -4.115522        -1.035113         2.893048
 O        -2.746669        -2.126373         1.288930
 H         2.014530         0.358139         0.857761
 H         1.632431        -1.344894         0.956880
 H         2.326655        -0.654547        -0.605368
 H        -2.816098        -1.017182        -0.694703
 H        -2.041755         1.910512        -0.948616
 H        -2.420823         0.607406        -2.194068
 H        -3.659565         1.565621        -1.032991
 H        -3.489620        -0.871302         3.794843
 H        -4.779340        -0.188442         2.646740
 H        -4.602133        -1.980682         3.105318
