19
Iteration:  3462charge 0 multiplicity 1
 C         1.926136        -0.405331         0.028923
 C         0.474418        -0.269955         0.020859
 C        -0.736271        -0.510570         0.021076
 C        -2.232156        -0.411837        -0.345883
 C        -2.520811         0.900649        -1.209321
 O        -2.867618        -0.043200         0.914203
 C        -3.427081        -0.996820         1.675624
 C        -3.896901        -0.397964         2.968128
 O        -3.752474        -2.173953         1.313589
 H         2.381547        -1.343340        -0.576955
 H         2.525744         0.555825        -0.361426
 H         2.218224        -0.434098         1.146736
 H        -2.671121        -1.408324        -0.735085
 H        -3.524469         1.082801        -1.480818
 H        -1.989941         1.757166        -0.662309
 H        -1.958572         0.838822        -2.220298
 H        -4.775863         0.153864         2.611168
 H        -4.275185        -1.249658         3.547203
 H        -3.168573         0.276747         3.502126
