19
Iteration:  4299
 C         1.684118        -0.919622        -0.197203
 C         0.238048        -0.882527        -0.137444
 C        -0.944549        -0.581162        -0.161446
 C        -2.309197        -0.050238        -0.330256
 C        -2.378944         1.331190        -0.886311
 O        -3.030483         0.290946         1.013082
 C        -3.298580        -0.942794         1.691836
 C        -4.033816        -0.648270         2.957230
 O        -3.033852        -2.024027         1.319871
 H         2.044865        -1.797436         0.329989
 H         2.206273        -1.045321        -1.169274
 H         2.202176         0.028542         0.237920
 H        -3.180118        -0.721569        -0.671743
 H        -3.401088         1.482851        -1.149860
 H        -2.032134         1.832700        -0.007510
 H        -1.729576         1.685575        -1.602428
 H        -4.930902        -1.292570         2.924399
 H        -3.443306        -0.858030         3.866769
 H        -4.285963         0.399860         3.000112
