19
Iteration:   739
 C         1.922530         0.863008         0.000627
 C         0.542714         0.406001        -0.076247
 C        -0.584264        -0.020411        -0.035521
 C        -1.957362        -0.613140        -0.123880
 C        -2.793278         0.344975        -0.996666
 O        -2.496769        -0.538069         1.283516
 C        -3.630449        -1.330671         1.549731
 C        -3.762709        -1.165887         3.007464
 O        -4.242087        -2.076419         0.758456
 H         2.327391         0.935621        -1.107555
 H         2.109970         1.895857         0.500854
 H         2.517227         0.187712         0.499784
 H        -1.905813        -1.684236        -0.398067
 H        -2.449422         1.280438        -0.669495
 H        -2.575720         0.269791        -2.111323
 H        -3.822112         0.113711        -0.904020
 H        -3.659719        -2.141737         3.527982
 H        -2.916298        -0.472118         3.309515
 H        -4.764133        -0.708307         3.092983
