19
Iteration:   842
 C         1.781679         1.071695        -0.194970
 C         0.555572         0.246427        -0.128248
 C        -0.475754        -0.356335         0.078436
 C        -1.913836        -0.628263         0.040242
 C        -2.711074         0.259519        -0.845424
 O        -2.381015        -0.631263         1.373400
 C        -3.542385        -1.234871         1.494706
 C        -3.954307        -1.196381         2.950260
 O        -4.264944        -1.778174         0.631528
 H         1.565196         2.009783        -0.536562
 H         2.402560         1.293988         0.738013
 H         2.547443         0.727476        -0.999452
 H        -2.133381        -1.705089        -0.355473
 H        -2.740209         1.365027        -0.531792
 H        -2.233057         0.114496        -1.824616
 H        -3.803421        -0.025474        -0.748208
 H        -3.265003        -0.659854         3.583667
 H        -4.901049        -0.688977         2.823353
 H        -4.084617        -2.171510         3.351628
