19
Iteration:  3665
 C         2.084820         0.066743        -0.165031
 C         0.656593        -0.073495        -0.066673
 C        -0.517186        -0.341679         0.029934
 C        -1.916632        -0.775698        -0.135252
 C        -2.619133        -0.023604        -1.312938
 O        -2.425628        -0.571985         1.310899
 C        -3.729866        -0.775793         1.632270
 C        -3.826829        -0.811648         3.212278
 O        -4.609137        -0.923053         0.863312
 H         2.390808        -0.454584        -1.089364
 H         2.437785         1.145021        -0.074584
 H         2.346059        -0.467923         0.803843
 H        -2.163447        -1.782194        -0.354171
 H        -3.600201        -0.459311        -1.458120
 H        -2.929437         0.865394        -0.906391
 H        -1.956726         0.157988        -2.145074
 H        -4.782380        -0.347933         3.373328
 H        -3.903196        -1.882839         3.347054
 H        -2.982703        -0.340018         3.705080
