19
Iteration:  2827charge 0 multiplicity 1
 C         2.063684         0.198776        -0.383703
 C         0.793172        -0.188643         0.001316
 C        -0.423317        -0.265790         0.179036
 C        -1.864418        -0.647408         0.049156
 C        -2.500925         0.252183        -1.063164
 O        -2.460323        -0.648192         1.391117
 C        -3.786192        -0.937635         1.548612
 C        -4.086803        -0.829874         3.043655
 O        -4.616281        -1.203430         0.698558
 H         2.087900         1.374416        -0.436792
 H         2.885120        -0.285302         0.247202
 H         2.224043        -0.152108        -1.503048
 H        -2.045064        -1.675105        -0.323636
 H        -3.351075        -0.407150        -1.498222
 H        -3.017638         1.093430        -0.602337
 H        -1.764906         0.508672        -1.803042
 H        -4.785347        -1.544868         3.559839
 H        -3.079863        -0.803993         3.487160
 H        -4.388384         0.210978         3.267656
