19
Iteration:   527charge 0 multiplicity 1
 C         1.717382         0.551003         0.094398
 C         0.338591        -0.012275         0.022159
 C        -0.875970        -0.242826        -0.035016
 C        -2.300098        -0.265045        -0.382950
 C        -2.721095         0.993471        -1.232927
 O        -3.081470        -0.185934         1.047195
 C        -3.322765        -1.386569         1.629921
 C        -3.846368        -1.291279         3.095772
 O        -3.000603        -2.424344         1.082239
 H         2.364148         0.303113         1.053298
 H         2.289737         0.333192        -0.757559
 H         1.562631         1.628975         0.084060
 H        -2.598176        -1.215078        -0.820298
 H        -2.515060         1.903979        -0.597208
 H        -2.176143         1.259135        -2.117695
 H        -3.753249         0.842358        -1.514658
 H        -3.776885        -0.233767         3.556946
 H        -4.918515        -1.623378         3.301536
 H        -3.135121        -1.951425         3.762435
