19
Iteration:   954
 C         1.956063         0.708218        -0.184864
 C         0.598068         0.271552         0.076000
 C        -0.575288        -0.041400        -0.068252
 C        -1.944248        -0.480317        -0.107057
 C        -2.869363         0.373480        -0.992498
 O        -2.490034        -0.394892         1.353273
 C        -3.517860        -1.256834         1.587263
 C        -4.071591        -1.234759         2.974193
 O        -4.004043        -2.056430         0.750982
 H         2.201974         1.452935         0.552715
 H         2.556860        -0.163653        -0.136646
 H         1.983744         1.106950        -1.333213
 H        -2.106240        -1.634096        -0.235029
 H        -3.398053         1.077716        -0.322096
 H        -2.301861         0.899880        -1.905976
 H        -3.633377        -0.234777        -1.506478
 H        -4.888552        -0.508270         3.164435
 H        -4.190883        -2.281706         3.210608
 H        -3.324424        -0.913093         3.748947
