19
Iteration:   704
 C         2.028738         0.735833         0.093393
 C         0.563215         0.367236        -0.005588
 C        -0.652316         0.088291        -0.111928
 C        -2.014475        -0.475703        -0.232208
 C        -3.096371         0.305767        -1.106452
 O        -2.437852        -0.500471         1.273200
 C        -3.449220        -1.314633         1.618546
 C        -3.896772        -1.247995         3.030285
 O        -3.992646        -2.037026         0.779726
 H         2.525876         0.288750        -0.922783
 H         2.144169         1.796311         0.175492
 H         2.483202         0.163382         0.954301
 H        -1.933692        -1.457527        -0.671698
 H        -3.076917         1.355660        -0.893639
 H        -2.864580         0.114834        -2.178813
 H        -4.130710         0.069046        -0.836680
 H        -4.516813        -2.184045         3.362058
 H        -3.032985        -1.034023         3.807551
 H        -4.599601        -0.358931         3.241192
