19
Iteration:  3891
 C         2.061792        -0.569241        -0.210134
 C         0.644706        -0.211378        -0.174285
 C        -0.585283        -0.203520        -0.201409
 C        -2.036923        -0.314395        -0.069279
 C        -2.804995         0.733701        -0.807864
 O        -2.446991        -0.263847         1.342933
 C        -3.591909        -1.009731         1.623009
 C        -4.150754        -0.622956         3.005168
 O        -4.002163        -1.752853         0.798108
 H         2.330004        -1.341728        -0.949577
 H         2.674172         0.359770        -0.251946
 H         2.155024        -0.981287         0.780853
 H        -2.414083        -1.244713        -0.561287
 H        -3.902197         0.796480        -0.383140
 H        -2.358836         1.701439        -0.574900
 H        -2.829805         0.621577        -1.934305
 H        -4.795362        -1.455950         3.349789
 H        -3.356219        -0.390670         3.746218
 H        -4.850116         0.242460         2.856543
