19
Iteration:   151
 C         1.693060         0.403155         0.323049
 C         0.292486         0.155910         0.039086
 C        -0.922121        -0.026109        -0.010655
 C        -2.388103        -0.238517        -0.323061
 C        -2.961337         0.907032        -1.159522
 O        -3.144205        -0.220601         1.009548
 C        -3.216456        -1.412996         1.556977
 C        -3.658331        -1.343212         3.001881
 O        -2.828313        -2.369826         0.889918
 H         2.404025        -0.553170         0.151495
 H         2.189521         1.266365        -0.141327
 H         1.787348         0.523298         1.441528
 H        -2.601509        -1.168852        -0.883279
 H        -2.670615         1.968843        -0.835721
 H        -2.603307         0.768663        -2.157945
 H        -4.098767         0.873567        -1.097690
 H        -4.515186        -1.964155         3.295285
 H        -2.801736        -1.659642         3.645621
 H        -3.692283        -0.300013         3.366342
