19
Iteration:  3174
 C         1.585003        -0.862710         0.395862
 C         0.122787        -0.576207         0.104361
 C        -1.050693        -0.382623        -0.195414
 C        -2.442150        -0.125870        -0.528870
 C        -2.563257         1.347398        -1.141572
 O        -3.246638        -0.052480         0.698379
 C        -3.111842        -1.017271         1.712697
 C        -4.052150        -0.647801         2.686568
 O        -2.380332        -2.018063         1.554201
 H         1.503952        -1.548913         1.318905
 H         2.211405        -1.383818        -0.320543
 H         2.140322         0.049691         0.628360
 H        -3.043433        -0.867805        -1.150449
 H        -3.746531         1.606461        -1.208663
 H        -2.171690         1.906933        -0.254443
 H        -1.979027         1.629773        -1.985089
 H        -3.717511         0.356990         3.001743
 H        -5.107216        -0.481588         2.254451
 H        -3.989297        -1.300578         3.591342
