19
Iteration:  3760charge 0 multiplicity 1
 C         1.913228         0.327889        -0.606367
 C         0.637521        -0.320154        -0.148892
 C        -0.470364        -0.716448         0.116988
 C        -1.882172        -0.771243         0.080917
 C        -2.161326         0.314319        -0.917645
 O        -2.412504        -0.707673         1.506144
 C        -3.804203        -0.850011         1.563059
 C        -4.205423        -0.600391         3.091278
 O        -4.518241        -1.108161         0.691063
 H         2.257803         0.015983        -1.528690
 H         1.844923         1.415219        -0.463561
 H         2.586077         0.083521         0.182484
 H        -2.395998        -1.713225        -0.361630
 H        -3.347309         0.709031        -0.895027
 H        -1.741655         1.306957        -0.707989
 H        -1.808255         0.003990        -1.926046
 H        -5.291647        -0.594123         3.295337
 H        -3.899816        -1.382977         3.776349
 H        -3.753405         0.261685         3.647075
