19
Iteration:   966
 C         1.934346         0.676819        -0.148004
 C         0.585045         0.237566         0.036034
 C        -0.579459        -0.129101        -0.072385
 C        -2.038482        -0.388358        -0.033174
 C        -2.903576         0.426891        -1.081236
 O        -2.487521        -0.378013         1.290732
 C        -3.473473        -1.268168         1.605685
 C        -4.053239        -1.291336         2.986992
 O        -3.925970        -2.045172         0.847781
 H         2.376533         1.360160         0.628270
 H         2.631634        -0.088791        -0.153293
 H         2.100185         1.295806        -1.155171
 H        -2.070831        -1.455896        -0.482558
 H        -3.464484         1.257153        -0.603895
 H        -2.136687         0.994801        -1.745433
 H        -3.598839        -0.259350        -1.609515
 H        -5.052474        -0.885548         2.711381
 H        -4.422890        -2.285542         3.231616
 H        -3.495480        -0.676361         3.763305
