19
Iteration:   576charge 0 multiplicity 1
 C         1.758193         0.518525         0.094117
 C         0.343647         0.305974         0.025818
 C        -0.799526        -0.082293         0.085959
 C        -2.239491        -0.301880        -0.271757
 C        -2.851708         0.843338        -1.166022
 O        -2.851810        -0.300667         1.004580
 C        -3.357814        -1.455602         1.568321
 C        -3.758945        -1.130485         3.053217
 O        -3.327983        -2.522790         1.009026
 H         2.115447        -0.409903         0.526138
 H         2.251259         0.532475        -0.963531
 H         2.093048         1.369064         0.760002
 H        -2.385793        -1.279489        -0.837358
 H        -2.429255         1.770805        -0.847742
 H        -2.491854         0.725893        -2.263273
 H        -3.956451         0.841112        -1.239188
 H        -4.238421        -0.182959         3.136827
 H        -4.434645        -1.805763         3.523193
 H        -2.876210        -1.113955         3.631473
