19
Iteration:  4959charge 0 multiplicity 1
 C         1.752566        -0.994153        -0.159992
 C         0.336775        -0.583711        -0.327706
 C        -0.897702        -0.523513        -0.287291
 C        -2.316000        -0.062648        -0.167777
 C        -2.532329         1.293774        -0.907445
 O        -2.636817         0.136961         1.212834
 C        -3.382198        -0.954613         1.711973
 C        -4.067652        -0.553491         3.017884
 O        -3.386453        -2.083257         1.130637
 H         2.277779        -1.299797        -1.102082
 H         2.383959        -0.175727         0.219083
 H         1.990989        -1.906315         0.542055
 H        -2.792481        -0.950818        -0.569735
 H        -3.595730         1.365051        -1.249709
 H        -2.410079         2.035590        -0.087677
 H        -1.892052         1.609110        -1.677029
 H        -5.160149        -0.713498         3.117232
 H        -3.538243        -1.118304         3.833802
 H        -3.707483         0.499378         3.241826
