19
Iteration:  4389
 C         1.937213        -0.683539        -0.467647
 C         0.509650        -0.601802        -0.140918
 C        -0.678644        -0.592885        -0.081308
 C        -2.147374        -0.230926        -0.192167
 C        -2.358363         1.172568        -0.853041
 O        -2.794148         0.057037         1.166076
 C        -3.546326        -0.969719         1.699421
 C        -4.056177        -0.496440         3.034258
 O        -3.862316        -2.066330         1.180593
 H         2.685809        -0.886341         0.373690
 H         2.158910        -1.362594        -1.348719
 H         2.132984         0.476531        -0.651962
 H        -2.671753        -1.134210        -0.769042
 H        -3.362535         1.373518        -0.447767
 H        -1.714907         1.881831        -0.471545
 H        -2.323856         1.251650        -1.946748
 H        -4.108804        -1.292277         3.750883
 H        -3.346119         0.244459         3.413883
 H        -4.976216         0.082687         2.896891
