19
Iteration:   650charge 0 multiplicity 1
 C         1.899921         0.505800         0.214830
 C         0.458771         0.364362        -0.179694
 C        -0.708223         0.040734        -0.106629
 C        -2.110432        -0.362755        -0.165900
 C        -3.163516         0.383977        -1.041190
 O        -2.517623        -0.246638         1.276950
 C        -3.415329        -1.325408         1.529280
 C        -3.830566        -1.189491         3.016716
 O        -3.618268        -2.255380         0.728127
 H         2.672747        -0.334330        -0.147883
 H         2.344563         1.410851        -0.225122
 H         1.941404         0.638601         1.229838
 H        -2.139724        -1.420629        -0.483556
 H        -3.398564         1.252591        -0.465043
 H        -2.807831         0.715843        -2.039772
 H        -4.098216        -0.169642        -1.284236
 H        -4.982735        -1.340342         3.076342
 H        -3.485817        -1.878522         3.898403
 H        -3.527744        -0.188685         3.459592
