19
Iteration:  1185charge 0 multiplicity 1
 C         1.628311        -0.197180         0.390700
 C         0.197655        -0.042469         0.123682
 C        -0.981904        -0.070124        -0.199892
 C        -2.478807        -0.116548        -0.351497
 C        -2.987406         1.072713        -1.152428
 O        -3.099222        -0.105989         0.906611
 C        -3.096103        -1.297977         1.571892
 C        -3.755416        -1.027483         2.893787
 O        -2.574308        -2.361348         1.183753
 H         1.821769        -1.266731         0.139499
 H         2.276596         0.423771        -0.247051
 H         2.005987        -0.015259         1.535250
 H        -2.812791        -1.097454        -0.849729
 H        -3.458802         1.893436        -0.419505
 H        -2.206612         1.438032        -1.774945
 H        -3.727818         0.646974        -1.969053
 H        -2.988801        -0.349338         3.203522
 H        -4.606087        -0.464957         2.522354
 H        -3.923752        -1.925899         3.419184
