19
Iteration:   365
 C         1.567691        -0.220163         0.317475
 C         0.199380         0.125202         0.069189
 C        -0.989658         0.013405        -0.097224
 C        -2.385337        -0.183111        -0.278634
 C        -3.197802         1.045260        -1.143210
 O        -3.209559        -0.198232         0.910691
 C        -3.025923        -1.280007         1.595542
 C        -3.940401        -1.377422         2.790487
 O        -2.155103        -2.019257         1.219588
 H         2.214965         0.777799         0.444947
 H         1.680115        -0.824547         1.214452
 H         1.889684        -0.708945        -0.547917
 H        -2.526589        -1.075104        -0.957529
 H        -3.362631         1.920737        -0.474733
 H        -2.581271         1.409675        -1.958391
 H        -3.989528         0.528182        -1.633494
 H        -3.238899        -1.861042         3.528783
 H        -4.329313        -0.402890         3.185043
 H        -4.724089        -2.090564         2.394324
