19
Iteration:  3862
 C         2.117189        -0.363138        -0.337855
 C         0.670302        -0.210445        -0.288136
 C        -0.552763        -0.259308        -0.145894
 C        -1.957890        -0.372905        -0.032254
 C        -2.686588         0.682691        -0.808268
 O        -2.293207        -0.504145         1.487628
 C        -3.605817        -0.985708         1.698774
 C        -4.281972        -0.568138         2.888824
 O        -4.265166        -1.640033         0.842548
 H         2.408434        -1.060586        -1.091235
 H         2.555854         0.624806        -0.306607
 H         2.151764        -0.832249         0.674906
 H        -2.377337        -1.345710        -0.458303
 H        -3.695621         0.399745        -0.742395
 H        -2.535235         1.752942        -0.487473
 H        -2.536162         0.726323        -1.912325
 H        -5.200391        -1.138635         2.932091
 H        -3.758413        -0.674717         3.839521
 H        -4.602635         0.442262         2.892095
