19
Iteration:  3969
 C         1.817373        -0.742320         0.120781
 C         0.360344        -0.429554        -0.067174
 C        -0.859080        -0.245860        -0.178743
 C        -2.325376        -0.133308        -0.261571
 C        -2.533069         1.135376        -1.161913
 O        -2.801604         0.102101         1.088448
 C        -3.406814        -0.995725         1.632701
 C        -3.650169        -0.926567         3.078905
 O        -3.701978        -1.991306         1.077575
 H         1.947442        -1.542000        -0.567012
 H         2.495757         0.096092        -0.137796
 H         2.075832        -1.126468         1.132994
 H        -2.896922        -0.788029        -0.850806
 H        -3.496849         1.121689        -1.674649
 H        -2.431701         2.126045        -0.646332
 H        -1.590810         1.121663        -1.793565
 H        -3.011234        -1.771558         3.443571
 H        -3.304945        -0.021265         3.615200
 H        -4.680120        -1.259089         3.186529
