19
Iteration:  2438
 C         1.785431        -0.535033         0.299985
 C         0.312724        -0.282817         0.193061
 C        -0.845464        -0.164266        -0.256863
 C        -2.282515        -0.126666        -0.390923
 C        -2.729908         1.192902        -1.123297
 O        -3.060034        -0.069050         0.835594
 C        -3.228481        -1.142768         1.555477
 C        -3.818713        -0.803453         2.963147
 O        -3.173332        -2.298243         1.256514
 H         1.968526        -1.559800         0.225077
 H         2.257970        -0.198105        -0.655895
 H         2.386649        -0.128485         1.231293
 H        -2.574150        -0.993043        -0.931783
 H        -2.548621         2.032993        -0.326598
 H        -2.330100         1.592783        -2.025388
 H        -3.842981         1.236821        -1.291484
 H        -4.846016        -1.180739         2.965795
 H        -3.185050        -1.216946         3.744912
 H        -3.965032         0.290111         3.020816
