19
Iteration:  2673charge 0 multiplicity 1
 C         2.026890        -0.129352         0.048526
 C         0.581216        -0.066277         0.001479
 C        -0.600503        -0.225423        -0.181464
 C        -1.979468        -0.429292        -0.202479
 C        -2.863662         0.666616        -0.916017
 O        -2.394778        -0.416347         1.216797
 C        -3.571809        -1.085339         1.578882
 C        -4.028109        -0.581292         2.896330
 O        -4.125150        -1.955264         0.920869
 H         2.434567         0.421416        -0.757260
 H         2.502467         0.454199         0.843673
 H         2.472736        -1.139130         0.012396
 H        -2.191803        -1.329469        -0.775009
 H        -3.472165         1.173103        -0.248984
 H        -2.100180         1.228990        -1.509269
 H        -3.513341         0.189657        -1.726534
 H        -4.022273         0.522342         2.988589
 H        -5.099522        -0.757478         2.764543
 H        -3.567173        -0.959437         3.824101
