19
Iteration:  2357charge 0 multiplicity 1
 C         1.526487        -0.614727         0.424818
 C         0.112968        -0.450838         0.113899
 C        -0.982174        -0.366754        -0.389668
 C        -2.425991        -0.016226        -0.467136
 C        -2.759628         1.209646        -1.172610
 O        -2.827213         0.161026         1.056767
 C        -3.075578        -1.014558         1.585432
 C        -4.065354        -1.076334         2.878066
 O        -2.603491        -2.094538         1.250869
 H         1.680410        -1.329636         1.361711
 H         2.064422        -0.873778        -0.481830
 H         1.865390         0.368091         0.684383
 H        -3.155160        -0.800127        -0.931551
 H        -2.221613         2.113278        -0.970257
 H        -2.556434         0.879032        -2.278146
 H        -3.870768         1.439956        -1.110009
 H        -4.988438        -0.538761         2.512070
 H        -4.357388        -2.104317         3.191302
 H        -3.604396        -0.590690         3.748867
