19
Iteration:  3928
 C         2.031540        -0.668533        -0.103354
 C         0.518344        -0.498396        -0.016708
 C        -0.658002        -0.163418        -0.069579
 C        -2.173413        -0.139085        -0.173709
 C        -2.840422         0.988698        -1.016820
 O        -2.641855        -0.055997         1.191160
 C        -3.471012        -0.997441         1.603866
 C        -3.866144        -0.778441         3.049671
 O        -3.885134        -1.906757         0.881805
 H         2.458250        -1.374726        -0.757045
 H         2.610200         0.227924        -0.212774
 H         2.341423        -1.008377         0.905244
 H        -2.502964        -1.193750        -0.512225
 H        -3.905069         0.769706        -0.931139
 H        -2.616505         2.106148        -0.682942
 H        -2.649689         0.796787        -2.116741
 H        -3.863660        -1.764400         3.511530
 H        -3.200356        -0.085135         3.550968
 H        -4.834269        -0.318919         3.115120
