19
Iteration:   789
 C         1.734375         1.092389        -0.167300
 C         0.579248         0.205510        -0.023428
 C        -0.480736        -0.416349        -0.066054
 C        -1.940327        -0.622065        -0.046590
 C        -2.630280         0.451524        -1.103777
 O        -2.440292        -0.570485         1.366865
 C        -3.528770        -1.319120         1.587459
 C        -3.956816        -1.261406         3.010465
 O        -4.257030        -1.849261         0.826028
 H         1.658185         1.826732        -0.952837
 H         1.840044         1.686435         0.689030
 H         2.842197         0.596703        -0.206732
 H        -2.172683        -1.647466        -0.421015
 H        -2.871466         1.363767        -0.474901
 H        -1.895704         0.675901        -1.916319
 H        -3.493397        -0.060285        -1.628321
 H        -3.078737        -1.751903         3.505508
 H        -4.157519        -0.180658         3.315040
 H        -4.939623        -1.712648         3.041044
