19
Iteration:  4141
 C         1.107199        -1.434817         0.583475
 C        -0.058615        -0.707586         0.013932
 C        -1.065967        -0.201023        -0.433335
 C        -2.431434         0.274611        -0.429019
 C        -2.776151         1.531335        -1.124336
 O        -2.984964         0.207407         0.861225
 C        -2.985500        -0.982574         1.573515
 C        -3.536081        -0.891198         2.964204
 O        -2.461175        -1.983085         1.245800
 H         0.932695        -2.514094         0.263298
 H         2.010311        -1.065590         0.059136
 H         1.297599        -1.417330         1.634255
 H        -2.953828        -0.628242        -0.980230
 H        -3.653462         1.420472        -1.770763
 H        -2.796771         2.317332        -0.396996
 H        -1.996448         1.742493        -1.927360
 H        -3.886558         0.130888         3.252821
 H        -4.221792        -1.754325         3.071343
 H        -2.709884        -1.203194         3.612529
