19
Iteration:  3030charge 0 multiplicity 1
 C         1.984081        -0.448420         0.241445
 C         0.539821        -0.346281         0.124730
 C        -0.646285        -0.177434        -0.085061
 C        -2.186524        -0.267433        -0.333572
 C        -2.699010         0.775703        -1.367570
 O        -2.852895        -0.004503         1.014479
 C        -3.564995        -0.986211         1.638780
 C        -3.798108        -0.755790         3.066829
 O        -3.814494        -2.002410         1.075579
 H         2.187932        -0.345815         1.266973
 H         2.490246        -1.335061        -0.051440
 H         2.344278         0.261923        -0.437967
 H        -2.372510        -1.333515        -0.657364
 H        -3.805260         0.897452        -1.524316
 H        -2.399546         1.761552        -1.066112
 H        -2.123463         0.400874        -2.245065
 H        -2.813242        -0.527525         3.585870
 H        -4.345316         0.179329         3.146443
 H        -4.146808        -1.707733         3.436099
