19
Iteration:  2424charge 0 multiplicity 1
 C         1.776962        -0.572444         0.349725
 C         0.342202        -0.291210         0.046461
 C        -0.872700        -0.202150        -0.220987
 C        -2.350802        -0.098594        -0.469639
 C        -2.770164         1.199883        -1.074299
 O        -3.023851        -0.001152         0.872449
 C        -3.248726        -1.169914         1.647538
 C        -3.871545        -0.797423         2.959843
 O        -3.034546        -2.261036         1.180381
 H         1.952288        -1.709719         0.668821
 H         2.455220        -0.249987        -0.432372
 H         2.045614         0.036544         1.274172
 H        -2.791231        -1.024487        -1.028359
 H        -2.279502         2.033073        -0.602713
 H        -2.391824         1.093248        -2.142388
 H        -3.910309         1.185512        -1.043708
 H        -4.926133        -1.159139         2.896665
 H        -3.459008        -1.452007         3.755914
 H        -3.912874         0.285353         3.257368
