19
Iteration:  3841charge 0 multiplicity 1
 C         2.179746        -0.166740        -0.399045
 C         0.698141        -0.310275        -0.333212
 C        -0.463857        -0.327368         0.010936
 C        -1.936105        -0.582990         0.044443
 C        -2.693145         0.628284        -0.699109
 O        -2.401527        -0.536505         1.395090
 C        -3.702593        -0.962449         1.616456
 C        -4.255081        -0.476411         2.966546
 O        -4.326473        -1.581578         0.771206
 H         2.388256        -0.742209        -1.339068
 H         2.414399         0.889383        -0.600616
 H         2.716725        -0.639869         0.497131
 H        -2.307822        -1.416632        -0.553737
 H        -3.677941         0.412160        -0.915525
 H        -2.550246         1.580062        -0.126625
 H        -2.180310         0.838161        -1.656149
 H        -5.296032        -0.781028         3.055563
 H        -3.648064        -0.822551         3.815125
 H        -4.241465         0.604327         3.003080
