19
Iteration:  2837
 C         2.164173         0.195054        -0.382960
 C         0.721416        -0.141580        -0.005033
 C        -0.481444        -0.306871         0.145008
 C        -1.868821        -0.656081        -0.042816
 C        -2.555653         0.218977        -1.020061
 O        -2.413060        -0.675789         1.417444
 C        -3.762593        -0.955735         1.591145
 C        -4.136274        -0.800811         3.035685
 O        -4.589902        -1.166081         0.733215
 H         2.234860         1.315734        -0.250734
 H         3.012594        -0.219312         0.280414
 H         2.334292         0.008507        -1.548937
 H        -1.922877        -1.702055        -0.438521
 H        -3.419978        -0.239756        -1.600431
 H        -2.711501         1.229638        -0.681573
 H        -1.800778         0.427633        -1.807691
 H        -4.759290        -1.654533         3.428782
 H        -3.257869        -0.756930         3.682044
 H        -4.750460         0.096691         3.006159
