19
Iteration:   520
 C         1.616705         0.509770         0.098398
 C         0.331766        -0.046350         0.030908
 C        -0.865413        -0.228927        -0.008275
 C        -2.287868        -0.223516        -0.429878
 C        -2.712943         1.010167        -1.252729
 O        -3.067580        -0.150097         1.098271
 C        -3.260147        -1.383457         1.595363
 C        -3.849533        -1.321537         3.080904
 O        -2.969356        -2.449627         1.142315
 H         2.255139         0.428960         1.074532
 H         2.291811         0.229648        -0.774938
 H         1.574047         1.605633        -0.016304
 H        -2.701473        -1.118029        -1.054462
 H        -2.750353         1.957505        -0.652903
 H        -2.081988         1.246211        -2.134327
 H        -3.816313         0.892678        -1.534080
 H        -3.652680        -0.288980         3.403513
 H        -4.946301        -1.566320         2.974743
 H        -3.341137        -1.946297         3.814287
