19
Iteration:   989
 C         1.886605         0.611831        -0.067159
 C         0.540683         0.167337        -0.140343
 C        -0.636259        -0.092968        -0.029599
 C        -2.071399        -0.405402        -0.132529
 C        -2.826941         0.547612        -1.147606
 O        -2.599378        -0.296278         1.352944
 C        -3.451940        -1.303232         1.610321
 C        -4.060423        -1.223316         3.065854
 O        -3.763679        -2.169776         0.809198
 H         2.192539         0.930606         1.006511
 H         2.552155        -0.153788        -0.186340
 H         2.197561         1.472844        -0.750362
 H        -2.190054        -1.480332        -0.387350
 H        -3.258231         1.320738        -0.464063
 H        -2.118497         1.088698        -1.782653
 H        -3.686584         0.017065        -1.609012
 H        -5.144983        -1.213513         2.948971
 H        -3.882941        -2.182261         3.586229
 H        -3.512453        -0.310586         3.456077
