19
Iteration:  3042charge 0 multiplicity 1
 C         1.975603        -0.518892         0.241238
 C         0.459808        -0.380690         0.167730
 C        -0.724028        -0.181006        -0.057961
 C        -2.156218        -0.202116        -0.315077
 C        -2.744172         0.761197        -1.357022
 O        -2.857896         0.088315         0.990585
 C        -3.452576        -0.975674         1.603683
 C        -3.816574        -0.732085         3.063030
 O        -3.688512        -2.069511         1.035227
 H         2.370401        -0.322918         1.244117
 H         2.229081        -1.492232        -0.107605
 H         2.497204         0.279160        -0.139019
 H        -2.436375        -1.232691        -0.632419
 H        -3.898757         0.628040        -1.322058
 H        -2.345099         1.730242        -1.235594
 H        -2.538008         0.558210        -2.414498
 H        -2.854634        -0.440506         3.530898
 H        -4.593873        -0.013507         3.273174
 H        -4.295679        -1.571684         3.560499
