19
Iteration:  1137
 C         1.689521         0.030454         0.372587
 C         0.291150        -0.117275         0.003074
 C        -0.879116        -0.057019        -0.311541
 C        -2.354806        -0.176294        -0.336417
 C        -2.951537         0.955171        -1.166201
 O        -2.947622        -0.070253         0.970219
 C        -3.213224        -1.231941         1.623278
 C        -3.811718        -1.196119         3.000705
 O        -2.937724        -2.289469         1.148506
 H         2.171191        -0.796863         0.785614
 H         2.390084         0.495243        -0.479993
 H         1.761320         0.810625         1.132759
 H        -2.561610        -1.215849        -0.654202
 H        -2.777394         1.876036        -0.663606
 H        -2.409374         0.882550        -2.208439
 H        -3.967155         0.794692        -1.445087
 H        -3.000034        -1.711928         3.566703
 H        -4.158945        -0.212555         3.359858
 H        -4.612976        -1.989660         2.797203
