19
Iteration:   558charge 0 multiplicity 1
 C         1.779432         0.502506         0.109387
 C         0.307834         0.255316        -0.015701
 C        -0.849178        -0.166689        -0.019230
 C        -2.215385        -0.331111        -0.271902
 C        -2.718215         0.823437        -1.078481
 O        -3.080247        -0.173110         1.034204
 C        -3.287317        -1.413959         1.576589
 C        -3.714613        -1.174678         2.935451
 O        -3.250189        -2.495539         1.059312
 H         2.302091        -0.168244         0.738772
 H         2.172843         0.492354        -0.897209
 H         1.758442         1.613548         0.489595
 H        -2.481049        -1.311578        -0.541348
 H        -2.460852         1.745760        -0.530085
 H        -2.447643         0.770860        -2.130619
 H        -3.788954         0.745185        -1.001288
 H        -4.046770        -0.144299         3.064122
 H        -4.536202        -1.828162         3.172542
 H        -2.914503        -1.509427         3.623234
