19
Iteration:  1004
 C         1.900027         0.547373         0.005532
 C         0.493368         0.173070        -0.202559
 C        -0.685530        -0.030766        -0.083380
 C        -2.063766        -0.395207        -0.086745
 C        -2.766936         0.589057        -1.000653
 O        -2.700457        -0.274914         1.232295
 C        -3.543372        -1.336810         1.567866
 C        -3.961560        -1.154434         3.024583
 O        -3.671719        -2.257723         0.846217
 H         1.999451         0.728759         1.115640
 H         2.635172        -0.286772        -0.361368
 H         2.022987         1.419902        -0.512465
 H        -2.184724        -1.415098        -0.336691
 H        -3.128322         1.503335        -0.542200
 H        -2.039957         0.782694        -1.749632
 H        -3.681734         0.140025        -1.416778
 H        -5.068778        -1.238445         3.127963
 H        -3.428695        -1.979737         3.599975
 H        -3.735650        -0.185761         3.438095
