19
Iteration:  1591charge 0 multiplicity 1
 C         1.910773         0.305771         0.014873
 C         0.486698         0.172839        -0.192973
 C        -0.701233        -0.130911        -0.134171
 C        -2.041252        -0.480950        -0.167898
 C        -2.781524         0.582939        -0.860709
 O        -2.461287        -0.464648         1.280884
 C        -3.566718        -1.199898         1.586830
 C        -3.963449        -0.838590         2.960672
 O        -3.912897        -2.141619         0.827479
 H         2.019497         0.723515         0.937067
 H         2.551120        -0.617265        -0.107975
 H         2.395247         1.183867        -0.631736
 H        -2.280616        -1.500394        -0.656883
 H        -2.621077         1.555372        -0.474707
 H        -2.402965         0.698068        -1.953664
 H        -3.810107         0.419752        -0.937387
 H        -3.754064         0.267474         3.108119
 H        -5.056279        -0.886280         3.220858
 H        -3.274350        -1.431838         3.599713
