19
Iteration:  1465charge 0 multiplicity 1
 C         1.821789        -0.033020         0.029415
 C         0.343624         0.056177         0.075907
 C        -0.842750        -0.165770        -0.096507
 C        -2.311829        -0.285014        -0.314212
 C        -2.649774         0.914267        -1.208731
 O        -2.977690        -0.007589         1.030297
 C        -3.382343        -1.203110         1.601108
 C        -3.937429        -1.194412         3.045879
 O        -3.165580        -2.268540         1.171230
 H         2.264579         1.092677         0.117855
 H         2.241433        -0.542019         0.941398
 H         2.243730        -0.529980        -0.788609
 H        -2.714590        -1.205849        -0.676018
 H        -2.337906         1.889809        -0.700983
 H        -2.104626         0.886989        -2.169692
 H        -3.756558         1.086881        -1.511009
 H        -3.058046        -1.518186         3.674780
 H        -4.333748        -0.230888         3.474748
 H        -4.744507        -1.919653         3.141120
