19
Iteration:  1726
 C         1.955115         0.615483        -0.431362
 C         0.645904         0.128458         0.098401
 C        -0.507929        -0.328364         0.098908
 C        -1.880777        -0.636870         0.031336
 C        -2.442486         0.241038        -1.144436
 O        -2.514588        -0.423337         1.302950
 C        -3.705275        -1.071484         1.607497
 C        -3.954095        -1.189768         3.114089
 O        -4.505611        -1.570507         0.765922
 H         2.767079        -0.054706         0.006483
 H         2.015065         0.688087        -1.458497
 H         2.193297         1.654594         0.034827
 H        -2.061947        -1.639377        -0.440195
 H        -2.308563         1.318012        -0.752985
 H        -1.922272        -0.149213        -1.932806
 H        -3.563431         0.119568        -1.249996
 H        -4.836658        -1.786780         3.257831
 H        -3.120677        -1.479463         3.746672
 H        -4.282634        -0.201977         3.519313
