19
Iteration:   451charge 0 multiplicity 1
 C         1.719260         0.165112         0.243890
 C         0.288774         0.177245        -0.109423
 C        -0.909273        -0.139740        -0.162013
 C        -2.382276        -0.179034        -0.379358
 C        -3.047289         1.021674        -0.907987
 O        -3.120846        -0.238069         0.876470
 C        -3.123746        -1.348189         1.635416
 C        -3.960621        -1.217668         2.811272
 O        -2.550004        -2.365874         1.297016
 H         1.998184         0.632713         1.342832
 H         2.101419        -0.831767         0.172491
 H         2.333000         0.686700        -0.382118
 H        -2.621751        -1.086368        -1.033210
 H        -2.697556         2.079334        -0.761919
 H        -2.764674         0.888911        -1.959911
 H        -4.138015         0.919898        -0.902758
 H        -3.439017        -0.718528         3.697687
 H        -4.952598        -0.754508         2.511323
 H        -4.178928        -2.253718         3.276931
