19
Iteration:  4229
 C         1.319370        -1.512817         0.121703
 C         0.225756        -0.490993        -0.064125
 C        -0.869618        -0.073980        -0.216853
 C        -2.273868         0.160802        -0.310309
 C        -2.747648         1.403767        -1.085160
 O        -3.035500         0.167228         0.900689
 C        -3.057230        -0.915652         1.734955
 C        -3.941473        -0.817450         2.947090
 O        -2.629523        -2.026657         1.315487
 H         0.628261        -2.376569         0.236076
 H         2.020669        -1.816377        -0.650049
 H         1.796469        -1.313301         1.008295
 H        -2.611394        -0.733244        -0.872193
 H        -3.805045         1.548479        -0.870095
 H        -1.959755         2.225532        -1.027208
 H        -2.778316         1.269558        -2.227223
 H        -4.961240        -0.687080         2.526355
 H        -3.873767        -1.742108         3.544803
 H        -3.747923         0.017620         3.668504
