19
Iteration:  4458charge 0 multiplicity 1
 C         2.067898        -0.839949        -0.345026
 C         0.643852        -0.341403        -0.387924
 C        -0.592803        -0.200266        -0.204035
 C        -2.031653        -0.290240         0.014384
 C        -2.834613         0.619231        -0.874251
 O        -2.345643        -0.194239         1.366728
 C        -3.569094        -0.829958         1.732898
 C        -4.067377        -0.666709         3.100502
 O        -4.189297        -1.481912         0.863965
 H         2.336854        -0.707420         0.782519
 H         2.098497        -1.939643        -0.640703
 H         2.655446        -0.063546        -0.865732
 H        -2.402101        -1.304422        -0.229947
 H        -3.793693         0.296097        -1.195955
 H        -2.967192         1.594186        -0.261209
 H        -2.174713         0.981287        -1.671546
 H        -3.630681        -1.339070         3.859681
 H        -3.911125         0.387616         3.411499
 H        -5.145236        -0.811611         2.999680
