19
Iteration:  4548charge 0 multiplicity 1
 C         2.082024        -0.309631        -0.213337
 C         0.628183        -0.494419        -0.227848
 C        -0.593598        -0.585064        -0.192570
 C        -2.151287        -0.547509        -0.191219
 C        -2.465715         0.604333        -1.114896
 O        -2.481517        -0.419238         1.221313
 C        -3.707925        -0.755199         1.711921
 C        -3.698742        -0.810065         3.260910
 O        -4.616087        -1.033223         1.061291
 H         2.600554         0.361829         0.540643
 H         2.628244        -1.327136        -0.196587
 H         2.389435        -0.030375        -1.247413
 H        -2.501904        -1.464630        -0.628126
 H        -3.584099         0.873870        -1.158816
 H        -1.976486         1.583721        -0.753908
 H        -2.088889         0.249669        -2.074123
 H        -2.740716        -1.198300         3.699521
 H        -3.876002         0.166471         3.760837
 H        -4.533458        -1.522448         3.464986
