19
Iteration:  2202charge 0 multiplicity 1
 C         1.635238        -0.575621         0.283420
 C         0.213447        -0.484454         0.003563
 C        -0.987454        -0.323714        -0.114030
 C        -2.370225        -0.081263        -0.373365
 C        -2.679494         1.343900        -1.154250
 O        -3.266702        -0.022603         0.737161
 C        -3.127963        -1.096850         1.670285
 C        -4.000230        -0.897918         2.929563
 O        -2.528659        -2.140269         1.343198
 H         1.837329         0.147114         1.197871
 H         1.956317        -1.610668         0.552234
 H         2.185384        -0.199792        -0.459251
 H        -2.601389        -0.864704        -1.147706
 H        -2.384728         2.249885        -0.481531
 H        -2.217716         1.298217        -2.108995
 H        -3.752885         1.408002        -1.159000
 H        -3.698134        -0.089924         3.612530
 H        -5.020819        -0.897354         2.522752
 H        -3.860493        -1.785520         3.559541
