19
Iteration:  4051
 C         1.407742        -0.908423         0.395848
 C        -0.000413        -0.769055         0.179209
 C        -1.072205        -0.469499        -0.257634
 C        -2.348210         0.096886        -0.530543
 C        -2.472578         1.595466        -0.998761
 O        -3.117823         0.027601         0.772648
 C        -3.153537        -1.085750         1.543137
 C        -3.262335        -0.684260         3.114528
 O        -3.156513        -2.183082         1.089450
 H         2.017554        -1.743305         0.006306
 H         1.824350        -0.019294        -0.068561
 H         1.640314        -0.842194         1.438575
 H        -2.850322        -0.528152        -1.405135
 H        -3.443145         2.104545        -0.596971
 H        -1.608888         2.133814        -0.554496
 H        -2.505696         1.628328        -2.081206
 H        -2.502182        -0.002275         3.444936
 H        -4.267395        -0.275052         3.283748
 H        -3.205679        -1.622997         3.695433
