19
Iteration:   796charge 0 multiplicity 1
 C         1.716188         1.097714        -0.181163
 C         0.598149         0.162303        -0.029534
 C        -0.490868        -0.394105        -0.069693
 C        -1.958065        -0.626226        -0.058756
 C        -2.593594         0.412325        -1.037665
 O        -2.401003        -0.555241         1.328302
 C        -3.581568        -1.301194         1.640348
 C        -3.963918        -1.251664         3.045872
 O        -4.232722        -1.837141         0.742183
 H         1.581662         1.864146        -0.926807
 H         1.840803         1.715395         0.836799
 H         2.657725         0.686263        -0.349191
 H        -2.243325        -1.681305        -0.361836
 H        -3.006036         1.364483        -0.609999
 H        -1.832196         0.597042        -1.728009
 H        -3.480655        -0.007099        -1.530586
 H        -3.169741        -1.631474         3.616887
 H        -4.203066        -0.279776         3.320704
 H        -4.823180        -1.892144         3.211915
