19
Iteration:  1479charge 0 multiplicity 1
 C         1.772744         0.114327         0.033132
 C         0.338118         0.016509         0.055897
 C        -0.796220        -0.360266        -0.063857
 C        -2.225781        -0.296668        -0.257905
 C        -2.683413         0.911498        -1.134891
 O        -2.918823        -0.079522         1.013654
 C        -3.411610        -1.162624         1.626900
 C        -3.920286        -1.085216         3.057824
 O        -3.245683        -2.225958         1.039112
 H         2.276689         1.064266         0.104600
 H         2.171307        -0.618044         0.850639
 H         2.002588        -0.289009        -0.913442
 H        -2.482281        -1.280550        -0.630812
 H        -2.445039         1.828142        -0.547209
 H        -2.125879         0.948371        -2.007397
 H        -3.752714         0.743764        -1.310721
 H        -2.992868        -1.263770         3.659832
 H        -4.499658        -0.179328         3.326883
 H        -4.499741        -2.055376         3.137117
