19
Iteration:   469
 C         1.655846         0.265753         0.183055
 C         0.245596         0.130515        -0.015522
 C        -0.911662        -0.217961        -0.177181
 C        -2.336130        -0.255079        -0.322339
 C        -2.927678         1.012887        -1.057021
 O        -3.074686        -0.191416         0.979219
 C        -3.172780        -1.399420         1.595375
 C        -4.014678        -1.187185         2.933340
 O        -2.572347        -2.380328         1.168503
 H         1.820507         0.498484         1.146918
 H         2.232769        -0.664212        -0.020621
 H         2.224114         1.114493        -0.408670
 H        -2.588054        -1.143114        -0.794785
 H        -2.752466         1.736220        -0.324397
 H        -2.635330         1.376265        -2.088622
 H        -3.995726         1.046044        -0.904673
 H        -3.463451        -0.444818         3.468571
 H        -4.994600        -0.835664         2.712900
 H        -4.033852        -2.084363         3.489438
