19
Iteration:   594
 C         1.821799         0.474985         0.106253
 C         0.372914         0.312778         0.113595
 C        -0.785840         0.090747        -0.125020
 C        -2.207568        -0.228203        -0.272832
 C        -2.894279         0.770666        -1.192739
 O        -2.774091        -0.362835         1.104829
 C        -3.357251        -1.475305         1.609486
 C        -3.781588        -1.135820         3.028452
 O        -3.473533        -2.538664         1.014492
 H         2.551353        -0.433201         0.369873
 H         2.169542         0.875084        -0.805343
 H         2.165380         1.197542         0.772757
 H        -2.284217        -1.204027        -0.769521
 H        -2.670801         1.853600        -1.063587
 H        -2.535786         0.652571        -2.196479
 H        -3.968370         0.491360        -1.172519
 H        -4.499671        -0.223559         3.069434
 H        -4.236143        -2.150200         3.419427
 H        -2.847193        -0.710932         3.583655
