19
Iteration:  4837
 C         1.894640        -0.678558        -0.555531
 C         0.564157        -0.544154        -0.176830
 C        -0.634086        -0.524819        -0.083623
 C        -2.086149        -0.158554        -0.129813
 C        -2.393980         0.944821        -1.004090
 O        -2.579546        -0.064456         1.366194
 C        -3.621790        -0.919194         1.701057
 C        -4.138299        -0.616832         3.276517
 O        -3.996724        -1.770334         1.009297
 H         2.207700        -0.106846        -1.462213
 H         2.569365        -0.276209         0.221453
 H         2.309432        -1.676941        -0.937503
 H        -2.741931        -0.934216        -0.501919
 H        -3.394034         1.346210        -0.918283
 H        -1.620542         1.706617        -1.021268
 H        -2.416273         0.594619        -2.042745
 H        -3.993101        -1.615432         3.835480
 H        -3.620146         0.277866         3.715345
 H        -5.200396        -0.323714         3.107070
