19
Iteration:  4659charge 0 multiplicity 1
 C         1.966005        -0.219018        -0.106566
 C         0.534463        -0.507039        -0.343260
 C        -0.646851        -0.742426        -0.357001
 C        -2.100151        -0.715512        -0.277569
 C        -2.590943         0.646060        -0.751778
 O        -2.333898        -0.667179         1.232845
 C        -3.586394        -0.673180         1.704715
 C        -3.699251        -0.627629         3.172166
 O        -4.494106        -0.931694         0.925704
 H         1.975800         0.837755         0.121350
 H         2.474628        -0.668846         0.773425
 H         2.541147        -0.574481        -0.947917
 H        -2.678640        -1.495083        -0.669420
 H        -3.631038         0.679523        -0.375267
 H        -2.039969         1.486368        -0.397532
 H        -2.612090         0.781373        -1.807707
 H        -2.791858        -0.725240         3.752220
 H        -4.191401         0.359181         3.269965
 H        -4.434764        -1.364610         3.564755
