19
Iteration:  3340
 C         1.743177        -0.986669         0.048128
 C         0.383798        -0.465456        -0.102870
 C        -0.787750        -0.178933        -0.053841
 C        -2.286782        -0.094402        -0.314964
 C        -2.703972         1.148624        -1.183731
 O        -3.038885         0.046776         0.880714
 C        -3.218285        -0.979703         1.797548
 C        -4.497787        -0.680333         2.633262
 O        -2.605129        -1.987212         1.685822
 H         1.546859        -2.109027        -0.058763
 H         2.536389        -0.722346        -0.679434
 H         2.167508        -0.546877         0.914111
 H        -2.496066        -1.088704        -0.773243
 H        -3.761153         0.974357        -1.150204
 H        -2.445456         2.131788        -1.059024
 H        -2.490840         0.846408        -2.189222
 H        -4.996740         0.161509         2.112869
 H        -5.076563        -1.632124         2.587475
 H        -4.336680        -0.449234         3.691079
