19
Iteration:  4544
 C         2.044475        -0.341439        -0.238310
 C         0.666387        -0.499260        -0.191861
 C        -0.598333        -0.494412        -0.160460
 C        -2.142962        -0.558978        -0.189825
 C        -2.500421         0.636273        -1.132402
 O        -2.459641        -0.436179         1.219202
 C        -3.670572        -0.754906         1.731102
 C        -3.706875        -0.786477         3.298857
 O        -4.628145        -1.051624         1.018301
 H         2.611931         0.225160         0.561017
 H         2.582161        -1.295770        -0.278765
 H         2.439309        -0.140562        -1.251589
 H        -2.499501        -1.580714        -0.676060
 H        -3.528615         0.777450        -1.157912
 H        -2.072793         1.566252        -0.869499
 H        -2.166280         0.174059        -2.035649
 H        -2.817204        -1.300654         3.655574
 H        -3.897744         0.177022         3.757116
 H        -4.475624        -1.520581         3.416050
