19
Iteration:  2071
 C         1.905582        -0.365436         0.210418
 C         0.463664        -0.195238        -0.107910
 C        -0.727393        -0.075826        -0.092358
 C        -2.243288        -0.124274        -0.328859
 C        -2.839666         1.037773        -1.230042
 O        -2.987793        -0.060187         0.942528
 C        -3.357124        -1.182658         1.649882
 C        -3.975062        -0.836515         2.947820
 O        -3.261078        -2.368600         1.295585
 H         2.440364         0.685835         0.078375
 H         2.097035        -0.550410         1.308644
 H         2.426716        -1.091514        -0.304173
 H        -2.347308        -1.052413        -0.850608
 H        -2.927092         2.036160        -0.652648
 H        -2.228063         1.173972        -2.075579
 H        -3.752147         0.579049        -1.630555
 H        -4.090678        -1.754909         3.509012
 H        -3.471674        -0.266656         3.716433
 H        -4.980690        -0.336458         2.823794
