19
Iteration:  3952charge 0 multiplicity 1
 C         1.804710        -0.712371         0.014377
 C         0.448574        -0.474257         0.004288
 C        -0.730882        -0.230581        -0.200946
 C        -2.154481        -0.039797        -0.270796
 C        -2.651117         1.082851        -1.187341
 O        -2.736571         0.084182         1.162362
 C        -3.461453        -1.062870         1.627533
 C        -3.759211        -0.910144         3.172934
 O        -3.792970        -1.972768         0.989220
 H         2.259533        -1.486928        -0.695490
 H         2.389229         0.193054        -0.194867
 H         2.219802        -1.019728         1.004097
 H        -2.524172        -1.106665        -0.556076
 H        -3.688758         0.918719        -1.500112
 H        -2.487951         1.979789        -0.508866
 H        -2.102568         1.160979        -2.117492
 H        -3.426129        -1.828871         3.637534
 H        -3.380623         0.007784         3.603670
 H        -4.847211        -0.761131         3.299968
