19
Iteration:  2326charge 0 multiplicity 1
 C         1.582407        -0.717009         0.394126
 C         0.174057        -0.418446         0.075216
 C        -0.983467        -0.263899        -0.235491
 C        -2.435270        -0.041646        -0.464724
 C        -2.793469         1.316047        -1.069760
 O        -3.114168         0.036023         0.887243
 C        -3.101346        -1.108134         1.580132
 C        -3.957046        -0.948589         2.795580
 O        -2.483599        -2.107916         1.334495
 H         1.694788        -1.150079         1.365981
 H         2.021592        -1.371284        -0.322663
 H         2.109911         0.270984         0.423789
 H        -2.855287        -0.878811        -1.045240
 H        -2.316419         2.054272        -0.509537
 H        -2.351112         1.277235        -2.144937
 H        -3.923240         1.203923        -1.169579
 H        -4.603577        -0.080312         2.601607
 H        -4.646708        -1.796297         2.972177
 H        -3.470715        -0.534936         3.699676
