19
Iteration:  4990charge 0 multiplicity 1
 C         1.707232        -1.105374        -0.132929
 C         0.248674        -0.769314        -0.081829
 C        -0.899747        -0.313413        -0.179595
 C        -2.282693        -0.018257        -0.250981
 C        -2.679474         1.311982        -0.954017
 O        -2.761582         0.215722         1.084805
 C        -3.186931        -0.976915         1.685174
 C        -3.948137        -0.662465         3.025804
 O        -3.264805        -2.021268         1.120985
 H         1.960296        -1.410017        -1.159454
 H         2.363221        -0.245873         0.005835
 H         2.029160        -1.806306         0.665812
 H        -2.868462        -0.894665        -0.692744
 H        -3.636721         1.618297        -0.561466
 H        -2.058499         2.093915        -0.504587
 H        -2.617186         1.325684        -1.973805
 H        -4.991649        -0.388918         2.764858
 H        -3.837868        -1.568934         3.620514
 H        -3.516395         0.239084         3.523948
