19
Iteration:  3553
 C         1.826621        -0.097482         0.365912
 C         0.487473        -0.309640        -0.108244
 C        -0.662922        -0.660910        -0.435141
 C        -2.149841        -0.642968        -0.261847
 C        -2.794642         0.460935        -1.101512
 O        -2.425603        -0.205606         1.144192
 C        -3.500039        -0.846294         1.626646
 C        -3.646248        -0.530360         3.091900
 O        -4.130054        -1.585344         0.903066
 H         2.626679        -0.473575        -0.314623
 H         2.016198         1.088321         0.315149
 H         2.039984        -0.272378         1.468074
 H        -2.834769        -1.508792        -0.454362
 H        -3.906352         0.562159        -1.065237
 H        -2.422559         1.468846        -0.945638
 H        -2.438537         0.228063        -2.063157
 H        -4.434726         0.191535         3.354079
 H        -3.835959        -1.400167         3.698401
 H        -2.750025        -0.045649         3.425141
