19
Iteration:  3750
 C         1.902798         0.329128        -0.530282
 C         0.681909        -0.265797        -0.230770
 C        -0.368108        -0.807324         0.099457
 C        -1.900312        -0.794071         0.111982
 C        -2.258670         0.299909        -0.901568
 O        -2.433023        -0.643100         1.539595
 C        -3.803741        -0.822388         1.638775
 C        -4.173102        -0.673594         3.051660
 O        -4.562546        -1.042983         0.648603
 H         2.272529         0.109204        -1.498453
 H         1.704962         1.433277        -0.515678
 H         2.722098         0.100181         0.149358
 H        -2.280676        -1.823115        -0.175665
 H        -3.382771         0.530924        -1.069351
 H        -1.597747         1.131912        -0.731756
 H        -1.941957        -0.198724        -1.835676
 H        -5.242313        -0.521702         3.174363
 H        -3.800876        -1.529756         3.595475
 H        -3.611238         0.221554         3.354734
