19
Iteration:  2269charge 0 multiplicity 1
 C         1.597118        -0.774230         0.220264
 C         0.203604        -0.259259         0.163533
 C        -0.991137        -0.140505         0.019082
 C        -2.381561        -0.038278        -0.484166
 C        -2.685570         1.439747        -1.070989
 O        -3.402708        -0.248871         0.514434
 C        -3.141873        -1.155468         1.554647
 C        -3.818380        -0.825779         2.876691
 O        -2.496893        -2.153326         1.539665
 H         2.019020        -0.951072         1.289774
 H         1.682319        -1.762867        -0.219308
 H         2.337437        -0.224004        -0.238068
 H        -2.536843        -0.977575        -1.116902
 H        -2.918288         2.139085        -0.224456
 H        -1.853950         1.744377        -1.777097
 H        -3.679454         1.489299        -1.518529
 H        -4.069068         0.243792         3.193987
 H        -4.793179        -1.333971         2.994654
 H        -3.268787        -1.228282         3.717555
