19
Iteration:  4078charge 0 multiplicity 1
 C         1.349736        -1.087002         0.570448
 C        -0.023411        -0.681337         0.028210
 C        -1.125835        -0.408520        -0.353223
 C        -2.467754         0.116114        -0.518341
 C        -2.509619         1.566185        -0.970625
 O        -3.196901         0.122238         0.850501
 C        -3.115067        -1.012482         1.527208
 C        -3.257646        -0.726638         2.938830
 O        -2.883664        -2.215634         1.158776
 H         1.761343        -2.083115         0.193941
 H         2.090233        -0.409923         0.018004
 H         1.467533        -1.062033         1.725354
 H        -3.048011        -0.524831        -1.287645
 H        -3.317194         2.108507        -0.630396
 H        -1.699974         2.052147        -0.386143
 H        -2.277595         1.621144        -2.050787
 H        -2.857953         0.313903         3.169433
 H        -4.354723        -0.632595         3.098395
 H        -2.784640        -1.427512         3.636824
