19
Iteration:  1874
 C         2.035206         0.356580         0.086069
 C         0.657759        -0.060730        -0.116649
 C        -0.584980        -0.119742        -0.002724
 C        -1.954806        -0.464635        -0.278564
 C        -2.992061         0.430575        -0.980598
 O        -2.381535        -0.596968         1.246233
 C        -3.624549        -1.148007         1.565356
 C        -3.908153        -0.597289         2.929278
 O        -4.204243        -1.998063         0.865773
 H         2.660429         0.113425        -0.860520
 H         1.971993         1.508761         0.145126
 H         2.605751        -0.064373         0.844731
 H        -2.002863        -1.479045        -0.649521
 H        -2.997961         1.385617        -0.453605
 H        -2.654262         0.522608        -2.078940
 H        -3.972841        -0.168653        -0.858694
 H        -3.222372         0.234893         3.011573
 H        -4.934529        -0.309719         3.252380
 H        -3.725774        -1.337459         3.746162
