19
Iteration:  4938charge 0 multiplicity 1
 C         1.770556        -0.904881        -0.239422
 C         0.364629        -0.618404        -0.412951
 C        -0.803719        -0.408798        -0.338022
 C        -2.192582        -0.078195        -0.273568
 C        -2.424559         1.304497        -0.909792
 O        -2.654671        -0.041575         1.233440
 C        -3.430573        -0.937864         1.775285
 C        -4.118450        -0.563460         3.107081
 O        -3.590920        -2.077056         1.272585
 H         2.415332        -0.976313        -1.135738
 H         2.299090        -0.089574         0.302706
 H         2.033293        -1.805350         0.471934
 H        -2.751084        -0.839506        -0.836119
 H        -3.343331         1.449716        -1.557911
 H        -2.463087         2.151217        -0.154417
 H        -1.495637         1.504319        -1.456358
 H        -5.074127        -1.073603         2.952974
 H        -3.490953        -0.844959         4.005796
 H        -4.283294         0.563659         3.132679
