19
Iteration:    33
 C         1.884959         0.787748         0.218952
 C         0.514396         0.237569        -0.092672
 C        -0.716768         0.171312        -0.199424
 C        -2.108522        -0.281346        -0.253184
 C        -3.102844         0.614521        -0.920122
 O        -2.538270        -0.424177         1.233627
 C        -3.392005        -1.431984         1.549964
 C        -3.891004        -1.411172         3.046500
 O        -3.616276        -2.344828         0.724536
 H         2.364491         0.556022         1.227881
 H         2.594807         0.409955        -0.490715
 H         1.941919         1.748528         0.127779
 H        -2.292667        -1.297819        -0.634738
 H        -3.624744         1.478562        -0.559286
 H        -2.612296         0.950150        -1.789824
 H        -3.903817         0.044950        -1.322169
 H        -4.767010        -2.058344         2.951265
 H        -3.306413        -1.700712         3.936077
 H        -4.266278        -0.418138         3.332706
