19
Iteration:  4587charge 0 multiplicity 1
 C         1.869685        -0.061137        -0.115156
 C         0.518482        -0.648719        -0.372202
 C        -0.669000        -0.997758        -0.221429
 C        -2.054438        -0.611030        -0.167437
 C        -2.360771         0.636168        -0.897976
 O        -2.460494        -0.372337         1.177692
 C        -3.681592        -0.685279         1.656773
 C        -3.568274        -0.795882         3.195890
 O        -4.600419        -0.966852         1.001313
 H         1.833107         0.819482         0.556020
 H         2.640007        -0.730025         0.263194
 H         2.334260         0.062905        -1.123830
 H        -2.835711        -1.411057        -0.461825
 H        -3.403035         0.836032        -0.897783
 H        -1.800426         1.411821        -0.403040
 H        -1.907548         0.583378        -1.937944
 H        -2.555441        -1.085082         3.452570
 H        -3.898279         0.184000         3.559033
 H        -4.209758        -1.606129         3.502857
