19
Iteration:  1498
 C         1.833678         0.205047         0.000525
 C         0.392555        -0.095562         0.022637
 C        -0.802345        -0.396060        -0.003391
 C        -2.247668        -0.294253        -0.218820
 C        -2.698722         0.893630        -1.071365
 O        -2.874855        -0.054551         1.106361
 C        -3.324246        -1.269065         1.587301
 C        -3.849212        -0.969736         2.953660
 O        -3.433863        -2.334609         0.957753
 H         1.900520         1.378521         0.372786
 H         2.334335        -0.430282         0.791041
 H         2.313996         0.169189        -0.926612
 H        -2.665729        -1.219918        -0.555381
 H        -2.596908         1.877953        -0.452339
 H        -2.159219         0.887381        -1.994262
 H        -3.852736         0.703483        -1.241803
 H        -3.211974        -0.569509         3.760097
 H        -4.460957        -0.038275         2.850345
 H        -4.406307        -1.774431         3.440234
