19
Iteration:  4975charge 0 multiplicity 1
 C         1.672947        -1.013227        -0.156640
 C         0.332622        -0.684755        -0.183498
 C        -0.869609        -0.477090        -0.262248
 C        -2.232721        -0.015155        -0.209675
 C        -2.626644         1.271738        -0.813990
 O        -2.767495         0.150441         1.183747
 C        -3.281069        -0.922426         1.698747
 C        -3.897102        -0.598159         2.933273
 O        -3.328853        -2.007354         1.129432
 H         1.952219        -1.485519        -1.103554
 H         2.239120        -0.123460         0.178189
 H         1.700341        -1.831381         0.494512
 H        -2.935664        -0.768032        -0.649776
 H        -3.693176         1.187012        -1.040373
 H        -2.230422         2.185731        -0.348485
 H        -2.182413         1.147469        -1.930281
 H        -4.947229        -0.700479         2.622059
 H        -3.883392        -1.340610         3.707269
 H        -3.745273         0.378676         3.313772
