19
Iteration:    26charge 0 multiplicity 1
 C         1.874945         0.812040         0.178262
 C         0.533130         0.241226        -0.059850
 C        -0.678303         0.161387        -0.188063
 C        -2.083862        -0.268442        -0.205730
 C        -3.082462         0.609414        -0.955608
 O        -2.492597        -0.416241         1.291979
 C        -3.374224        -1.448332         1.526263
 C        -3.901425        -1.451749         2.986867
 O        -3.735437        -2.342170         0.752487
 H         2.261600         0.682786         1.130958
 H         2.672222         0.335576        -0.484121
 H         1.872161         2.071818        -0.164741
 H        -2.277990        -1.284016        -0.569354
 H        -3.628365         1.460438        -0.520589
 H        -2.465697         0.864335        -1.976446
 H        -4.008775         0.028764        -1.286846
 H        -4.752798        -2.105323         2.918342
 H        -3.283281        -1.663600         3.865922
 H        -4.281264        -0.475122         3.304680
