19
Iteration:  1255
 C         1.510938        -0.377485         0.412233
 C         0.062435        -0.207579         0.168682
 C        -1.102844         0.001882        -0.082667
 C        -2.484368        -0.069398        -0.467384
 C        -2.856686         1.292940        -1.184651
 O        -3.360329        -0.261285         0.733961
 C        -2.994393        -1.331327         1.562489
 C        -3.766996        -1.046565         2.896803
 O        -2.196951        -2.179199         1.360415
 H         1.828109        -1.006231        -0.587872
 H         2.016832         0.576071         0.392698
 H         1.731278        -0.880120         1.292301
 H        -2.669435        -0.810642        -1.203564
 H        -2.249464         2.074345        -0.838361
 H        -2.635343         1.082326        -2.290569
 H        -3.879626         1.504274        -1.108079
 H        -4.228445        -0.060339         2.749586
 H        -4.516987        -1.832909         3.017182
 H        -2.976863        -1.093786         3.723828
