19
Iteration:  1739
 C         1.971628         0.701693        -0.376659
 C         0.760553         0.036304         0.092575
 C        -0.424158        -0.410489         0.129251
 C        -1.909455        -0.643870        -0.044131
 C        -2.536220         0.237074        -1.065418
 O        -2.553781        -0.374698         1.297382
 C        -3.669910        -1.127066         1.597206
 C        -3.978160        -1.157374         3.043716
 O        -4.522008        -1.544770         0.817700
 H         2.920373        -0.024556        -0.357880
 H         1.814447         0.811308        -1.473816
 H         2.170434         1.652541         0.022615
 H        -2.130012        -1.704861        -0.119229
 H        -2.330864         1.351724        -0.984616
 H        -2.130302         0.146304        -2.136084
 H        -3.577936        -0.015223        -1.147905
 H        -4.648195        -1.996483         3.248659
 H        -3.073861        -1.252272         3.616655
 H        -4.489545        -0.223961         3.303656
