19
Iteration:  1147
 C         1.688859         0.008752         0.376928
 C         0.236047        -0.147104         0.048760
 C        -0.947968        -0.027307        -0.271334
 C        -2.393268        -0.149696        -0.410956
 C        -2.949228         0.968139        -1.251592
 O        -2.908263        -0.065569         0.993643
 C        -3.123141        -1.223786         1.658624
 C        -3.825213        -1.212154         2.962864
 O        -2.878888        -2.327775         1.152685
 H         2.164628        -0.928195         0.700427
 H         2.325782         0.451943        -0.493382
 H         1.735810         0.609941         1.208186
 H        -2.680553        -1.089075        -0.853485
 H        -2.994295         1.801311        -0.638726
 H        -2.256153         1.289991        -2.108470
 H        -3.946274         0.847014        -1.519881
 H        -3.164615        -1.383113         3.873153
 H        -4.310381        -0.261467         3.263032
 H        -4.594402        -1.989954         3.182083
