19
Iteration:  1684
 C         1.945806         0.417660        -0.267726
 C         0.574953         0.269541        -0.202985
 C        -0.497730        -0.145408         0.147175
 C        -1.927099        -0.557163         0.087632
 C        -2.599945         0.210184        -1.067613
 O        -2.488223        -0.471301         1.362598
 C        -3.647833        -1.119045         1.586371
 C        -3.947035        -1.165340         3.109114
 O        -4.372475        -1.591624         0.670393
 H         2.488796        -0.019870         0.694250
 H         2.418786         0.119296        -1.201495
 H         2.176699         1.465331        -0.208181
 H        -1.860670        -1.631068        -0.106173
 H        -2.651700         1.375143        -0.910815
 H        -1.993550         0.001111        -1.993475
 H        -3.668761        -0.097162        -1.306479
 H        -4.995501        -1.013283         3.132816
 H        -3.738832        -2.114164         3.557016
 H        -3.333314        -0.330540         3.433789
