19
Iteration:  3742
 C         1.996265         0.406141        -0.492971
 C         0.634133        -0.320045        -0.253415
 C        -0.411194        -0.850784         0.110564
 C        -1.839369        -0.862071         0.198619
 C        -2.353818         0.261007        -0.905572
 O        -2.455237        -0.577584         1.480715
 C        -3.803583        -0.813026         1.567277
 C        -4.152787        -0.714454         3.050629
 O        -4.538066        -0.975022         0.697202
 H         2.195013         0.115586        -1.594346
 H         1.912597         1.539850        -0.610425
 H         2.805826         0.078437         0.273141
 H        -2.235471        -1.791461        -0.211191
 H        -3.364080         0.317286        -0.859315
 H        -1.699573         1.086517        -0.751043
 H        -2.076513        -0.057556        -1.936063
 H        -5.208921        -0.545543         3.019228
 H        -3.766787        -1.661237         3.459705
 H        -3.623450         0.148937         3.393348
