19
Iteration:  2283charge 0 multiplicity 1
 C         1.595354        -0.779682         0.301607
 C         0.228298        -0.332693        -0.009326
 C        -0.949071        -0.085435         0.029347
 C        -2.357658         0.040959        -0.472145
 C        -2.697705         1.336455        -1.040210
 O        -3.424464        -0.205170         0.592229
 C        -3.219978        -1.195455         1.548393
 C        -3.872558        -0.820891         2.887368
 O        -2.456847        -2.152204         1.533732
 H         1.609675        -0.904692         1.319862
 H         1.712587        -1.711685        -0.233233
 H         2.421445        -0.002382        -0.063052
 H        -2.487191        -0.595349        -1.318292
 H        -2.565042         2.101832        -0.325373
 H        -1.936838         1.744415        -1.851734
 H        -3.709070         1.269357        -1.633437
 H        -4.043988         0.260615         2.983613
 H        -4.739519        -1.499628         3.071385
 H        -2.971605        -1.246511         3.416653
