19
Iteration:  2160charge 0 multiplicity 1
 C         1.585852        -0.488198         0.353232
 C         0.270940        -0.311453        -0.120966
 C        -0.898053        -0.313791        -0.342283
 C        -2.375502        -0.093970        -0.338692
 C        -2.629793         1.130913        -1.206507
 O        -3.018372         0.121250         1.000850
 C        -3.248419        -1.097883         1.664605
 C        -4.107555        -1.082595         2.905060
 O        -2.704934        -2.133016         1.334934
 H         1.871103         0.487160         0.923458
 H         1.693602        -1.373466         0.990751
 H         2.261392        -0.490641        -0.519798
 H        -2.905866        -0.974605        -0.624992
 H        -1.816814         1.934853        -0.961551
 H        -2.467620         0.968663        -2.296203
 H        -3.629394         1.506057        -1.148432
 H        -3.320791        -0.768392         3.654554
 H        -4.870026        -0.296282         2.752362
 H        -4.493479        -2.055769         3.204921
