19
Iteration:  1952
 C         1.899622         0.181133         0.065144
 C         0.490392        -0.147488        -0.173921
 C        -0.690666        -0.256637         0.008466
 C        -2.131906        -0.411312        -0.144658
 C        -2.673345         0.618015        -1.226703
 O        -2.677747        -0.092497         1.195461
 C        -3.501013        -1.121001         1.636846
 C        -3.918678        -0.870870         2.971737
 O        -3.819542        -2.137594         0.964945
 H         2.609379         0.635833        -0.691804
 H         1.913977         0.879631         0.955137
 H         2.379645        -0.765098         0.474745
 H        -2.407990        -1.437784        -0.305106
 H        -2.088841         1.606517        -0.988327
 H        -2.344149         0.265087        -2.160349
 H        -3.792043         0.585737        -1.180854
 H        -4.738584        -0.122300         2.960237
 H        -4.335941        -1.765092         3.478317
 H        -3.037285        -0.444340         3.566026
