19
Iteration:  2245
 C         1.506276        -0.680061         0.172333
 C         0.150563        -0.332241         0.337955
 C        -0.995341        -0.180681        -0.072718
 C        -2.371141        -0.030866        -0.485484
 C        -2.631207         1.325100        -1.012159
 O        -3.344532        -0.241904         0.660405
 C        -3.082489        -1.170849         1.577676
 C        -3.916306        -0.691472         2.844697
 O        -2.421329        -2.190012         1.362098
 H         2.204700        -0.689480         1.104469
 H         1.515946        -1.756628        -0.135547
 H         1.996000        -0.185282        -0.558010
 H        -2.666323        -0.867923        -1.243496
 H        -2.910230         1.998082        -0.123475
 H        -1.853694         1.630927        -1.640185
 H        -3.578653         1.328728        -1.462066
 H        -3.959855         0.389714         3.044719
 H        -4.953344        -1.022704         2.861892
 H        -3.546304        -1.127957         3.762956
