19
Iteration:  3713
 C         2.008399         0.322904        -0.381449
 C         0.710338        -0.353135        -0.141545
 C        -0.452771        -0.660539         0.050938
 C        -1.786257        -0.902217         0.049232
 C        -2.596852         0.053668        -0.987390
 O        -2.376518        -0.492976         1.416786
 C        -3.720706        -0.640721         1.628971
 C        -4.117099        -0.833701         3.069857
 O        -4.550041        -0.890755         0.711417
 H         2.211116         0.037502        -1.436239
 H         1.796384         1.355192        -0.393299
 H         2.781489         0.141658         0.337773
 H        -2.057229        -1.903979        -0.276401
 H        -3.699292         0.015931        -0.916749
 H        -2.244066         1.145786        -0.667713
 H        -2.094580        -0.061485        -1.967395
 H        -5.219650        -0.706174         3.196828
 H        -3.795963        -1.906729         3.257065
 H        -3.505935        -0.131501         3.677628
