19
Iteration:   883charge 0 multiplicity 1
 C         2.048097         0.941055        -0.263192
 C         0.582407         0.470017        -0.070192
 C        -0.563292         0.000948        -0.028265
 C        -1.866647        -0.690678        -0.057533
 C        -2.710560         0.293549        -0.931914
 O        -2.384868        -0.793767         1.359261
 C        -3.606532        -1.324323         1.603978
 C        -4.170676        -1.132448         3.057381
 O        -4.256327        -1.838471         0.707237
 H         2.017836         2.082147        -0.162275
 H         2.733912         0.409459         0.579305
 H         2.382035         0.647042        -1.146300
 H        -1.756745        -1.661864        -0.524855
 H        -2.333956         1.316692        -0.815787
 H        -2.706685        -0.058549        -1.872530
 H        -3.787168         0.227082        -0.680823
 H        -4.044901        -0.240608         3.601163
 H        -5.111663        -1.631893         2.945301
 H        -3.790916        -2.015728         3.609802
