19
Iteration:  3826charge 0 multiplicity 1
 C         2.204278        -0.045237        -0.557564
 C         0.739486        -0.337534        -0.183558
 C        -0.449055        -0.474005         0.055020
 C        -1.989382        -0.605193         0.012988
 C        -2.609048         0.572313        -0.655199
 O        -2.499945        -0.537970         1.443128
 C        -3.775725        -0.895588         1.579860
 C        -4.162039        -0.431956         2.953585
 O        -4.403422        -1.567540         0.698225
 H         2.739450        -0.465974        -1.334769
 H         2.460555         1.007853        -0.581622
 H         2.803952        -0.362255         0.250569
 H        -2.160512        -1.673407        -0.243856
 H        -3.745718         0.323344        -0.825068
 H        -2.626438         1.296189         0.147475
 H        -2.073617         0.892493        -1.594117
 H        -5.191843        -0.669233         3.209743
 H        -3.479373        -1.033031         3.567288
 H        -3.891155         0.635648         3.001894
