19
Iteration:  2896charge 0 multiplicity 1
 C         2.066809         0.203644        -0.056424
 C         0.613505        -0.149842        -0.251284
 C        -0.548398        -0.529329        -0.124206
 C        -1.943031        -0.732883         0.020908
 C        -2.655758         0.340736        -0.841148
 O        -2.338682        -0.609151         1.369522
 C        -3.723513        -0.887808         1.560989
 C        -4.041550        -0.750506         2.976095
 O        -4.394053        -1.254327         0.665477
 H         2.096992         1.329157         0.527542
 H         2.742958        -0.492078         0.418683
 H         2.569181         0.460394        -0.991754
 H        -2.151550        -1.779050        -0.298035
 H        -3.655903         0.582975        -0.536616
 H        -2.022547         1.284095        -0.822596
 H        -2.671610        -0.072361        -1.872347
 H        -4.021190        -1.612527         3.658836
 H        -3.408964         0.133877         3.256983
 H        -5.081143        -0.283525         2.994143
