19
Iteration:  2789charge 0 multiplicity 1
 C         2.050630         0.200847        -0.420359
 C         0.709780        -0.142680         0.002210
 C        -0.427368        -0.449189         0.239360
 C        -1.865744        -0.703658         0.117758
 C        -2.488987         0.306078        -1.063104
 O        -2.529654        -0.337823         1.312578
 C        -3.804121        -0.913305         1.580762
 C        -4.033361        -0.902581         3.010022
 O        -4.541130        -1.334379         0.706816
 H         2.300764         1.168139        -0.775852
 H         2.788419        -0.076860         0.390756
 H         2.295748        -0.519834        -1.246494
 H        -1.940837        -1.820295         0.015089
 H        -3.170205        -0.260379        -1.650367
 H        -2.927235         1.196707        -0.524236
 H        -1.837211         0.801736        -1.834622
 H        -5.023951        -1.173289         3.283547
 H        -3.412803        -1.725967         3.405204
 H        -3.752385         0.098539         3.354128
