19
Iteration:  1356charge 0 multiplicity 1
 C         1.555858        -0.397124         0.405673
 C         0.173929        -0.196106        -0.064775
 C        -1.005784        -0.017692        -0.276541
 C        -2.437758         0.011858        -0.370386
 C        -2.973441         1.144110        -1.208849
 O        -3.014612        -0.072921         0.983615
 C        -3.072026        -1.216869         1.607580
 C        -3.928353        -1.132460         2.815483
 O        -2.429454        -2.257518         1.380025
 H         2.194398         0.118697        -0.387719
 H         1.675541         0.069882         1.425815
 H         1.860911        -1.366748         0.449428
 H        -2.714376        -0.860546        -0.924119
 H        -3.181493         1.987096        -0.564888
 H        -2.216420         1.324836        -1.903309
 H        -3.929936         0.888967        -1.696263
 H        -4.623514        -2.007148         2.815903
 H        -3.255882        -1.320625         3.702571
 H        -4.522968        -0.232780         2.690122
