19
Iteration:  2344
 C         1.520017        -0.610552         0.404195
 C         0.098494        -0.434173         0.146942
 C        -1.000217        -0.403315        -0.353642
 C        -2.373061        -0.014084        -0.405796
 C        -2.822049         1.277305        -1.165400
 O        -2.898759         0.165647         0.936305
 C        -3.120994        -1.098305         1.622478
 C        -4.053341        -1.005798         2.760099
 O        -2.533033        -2.113266         1.315586
 H         1.766097        -1.382988         1.322122
 H         1.948286        -1.218364        -0.444900
 H         2.116879         0.230331         0.570102
 H        -2.891563        -0.977691        -0.791891
 H        -2.248245         2.154132        -0.670507
 H        -2.520601         1.229072        -2.234173
 H        -3.866813         1.420800        -1.073161
 H        -4.958221        -0.400638         3.007891
 H        -4.154027        -2.075461         2.967597
 H        -3.342788        -0.679206         3.528450
