19
Iteration:   233charge 0 multiplicity 1
 C         1.579105         0.171542         0.473177
 C         0.205632        -0.020576        -0.044567
 C        -0.988751        -0.039338        -0.275515
 C        -2.482000        -0.146748        -0.424664
 C        -3.002383         1.203433        -1.050210
 O        -3.297539        -0.344753         0.816163
 C        -3.055703        -1.425186         1.558525
 C        -3.704309        -1.223908         2.889488
 O        -2.378787        -2.372221         1.301308
 H         2.379577         0.150464        -0.477137
 H         1.621594         1.186279         0.903333
 H         1.869314        -0.544430         1.327177
 H        -2.815544        -0.966473        -1.075405
 H        -2.898019         1.891681        -0.229509
 H        -2.299482         1.546149        -1.883875
 H        -4.023337         1.315843        -1.355844
 H        -4.381914        -2.086659         3.113822
 H        -2.938336        -1.244743         3.675499
 H        -4.390778        -0.365736         2.918719
