19
Iteration:  3408charge 0 multiplicity 1
 C         1.858979        -0.684423        -0.090251
 C         0.420662        -0.566108         0.044912
 C        -0.759486        -0.193673         0.102457
 C        -2.176932        -0.137021        -0.214108
 C        -2.536982         0.821206        -1.393559
 O        -3.023918         0.204903         1.013937
 C        -3.380350        -0.949323         1.747956
 C        -4.276044        -0.665595         2.909746
 O        -3.158135        -2.104373         1.346025
 H         2.069480        -1.713281        -0.583106
 H         2.426978         0.130788        -0.693581
 H         2.431506        -0.461961         0.828634
 H        -2.720066        -1.048637        -0.564932
 H        -3.526346         0.727882        -1.584410
 H        -2.425873         1.940550        -1.193462
 H        -1.894768         0.655569        -2.305169
 H        -4.985581         0.051846         2.500550
 H        -4.722319        -1.587557         3.223691
 H        -3.631224        -0.134524         3.666784
