19
Iteration:  4074charge 0 multiplicity 1
 C         1.410502        -1.042839         0.567903
 C        -0.011558        -0.726413         0.067274
 C        -1.146254        -0.415509        -0.351144
 C        -2.485119         0.109351        -0.519580
 C        -2.492760         1.603266        -0.980927
 O        -3.190011         0.111032         0.813735
 C        -3.097114        -1.031740         1.533898
 C        -3.255479        -0.723692         2.968049
 O        -2.930602        -2.215569         1.159528
 H         1.728383        -2.065868         0.150890
 H         2.154524        -0.403668         0.064997
 H         1.586114        -1.079072         1.623871
 H        -3.218007        -0.431242        -1.264848
 H        -3.442863         2.182501        -0.646994
 H        -1.659385         2.017883        -0.454406
 H        -2.383435         1.672593        -2.082674
 H        -2.784851         0.253367         3.128092
 H        -4.355841        -0.625254         3.120378
 H        -2.865696        -1.461461         3.669043
