19
Iteration:  2792charge 0 multiplicity 1
 C         2.045586         0.198964        -0.428118
 C         0.723766        -0.149399        -0.003133
 C        -0.416632        -0.417636         0.275769
 C        -1.889340        -0.711319         0.092072
 C        -2.483650         0.292402        -1.041551
 O        -2.527334        -0.360484         1.299232
 C        -3.796503        -0.901302         1.592052
 C        -4.029729        -0.898155         2.999892
 O        -4.560794        -1.328948         0.690482
 H         2.276400         1.232845        -0.653455
 H         2.929011        -0.025571         0.370944
 H         2.325950        -0.586012        -1.325472
 H        -2.008080        -1.814692         0.041277
 H        -3.214674        -0.258562        -1.602918
 H        -3.020642         1.141101        -0.517698
 H        -1.768297         0.798503        -1.803842
 H        -5.012513        -1.201707         3.394683
 H        -3.297623        -1.622632         3.398270
 H        -3.764884         0.083715         3.344215
