19
Iteration:  3259charge 0 multiplicity 1
 C         1.509898        -0.907739         0.268042
 C         0.181195        -0.556674        -0.115455
 C        -1.054408        -0.531488        -0.158028
 C        -2.402001        -0.047871        -0.474086
 C        -2.461449         1.289319        -1.005057
 O        -3.271898        -0.068616         0.659683
 C        -3.161960        -0.989230         1.682080
 C        -4.226695        -0.734803         2.631949
 O        -2.278892        -1.776556         1.773312
 H         1.603549        -1.803393         0.831865
 H         2.199787        -0.883667        -0.569757
 H         1.797525        -0.196591         1.132971
 H        -2.837037        -0.822852        -1.106501
 H        -3.407540         1.674043        -1.380414
 H        -2.173345         1.997542        -0.193719
 H        -1.722272         1.284145        -1.812838
 H        -4.661988         0.263408         2.682557
 H        -4.983709        -1.474565         2.318994
 H        -3.694467        -1.105396         3.541743
