19
Iteration:   933
 C         1.992214         0.742711        -0.212906
 C         0.591118         0.358373        -0.038116
 C        -0.572070         0.032441         0.070333
 C        -1.921890        -0.548665        -0.010285
 C        -2.858647         0.258411        -0.870449
 O        -2.531732        -0.546524         1.311504
 C        -3.626350        -1.276240         1.535622
 C        -3.983310        -1.165034         3.027595
 O        -4.066119        -1.977185         0.608767
 H         2.214027         1.671686         0.381416
 H         2.609520        -0.035177         0.079435
 H         2.165687         0.924643        -1.377376
 H        -1.764136        -1.638057        -0.354072
 H        -3.106643         1.134263        -0.252679
 H        -2.284762         0.513954        -1.866558
 H        -3.807429        -0.229968        -1.101454
 H        -4.430170        -0.138209         3.036184
 H        -4.540145        -2.043969         3.391395
 H        -3.049123        -0.947720         3.635522
