19
Iteration:  2556charge 0 multiplicity 1
 C         1.843886        -0.181850         0.115040
 C         0.365567        -0.341622         0.160991
 C        -0.814867        -0.301835        -0.133372
 C        -2.241589        -0.177931        -0.243858
 C        -2.585091         0.837626        -1.260179
 O        -2.753844         0.006869         1.147182
 C        -3.354940        -1.081206         1.599014
 C        -3.888148        -0.914810         3.000917
 O        -3.622478        -2.090859         0.997142
 H         2.457525        -0.566929        -0.760454
 H         2.122026         0.844617         0.127919
 H         2.063879        -0.612506         1.041661
 H        -2.629671        -1.186474        -0.524555
 H        -1.866329         1.667130        -1.338765
 H        -2.542297         0.230582        -2.141755
 H        -3.593064         1.247533        -1.296351
 H        -3.311158        -1.405651         3.798177
 H        -3.811101         0.142441         3.221260
 H        -4.869293        -1.412950         3.025006
