19
Iteration:  3696
 C         2.035302         0.257158        -0.352146
 C         0.762529        -0.316748        -0.033632
 C        -0.467519        -0.533038        -0.023921
 C        -2.020769        -0.760963         0.018173
 C        -2.572306         0.022242        -1.128630
 O        -2.382843        -0.558607         1.417258
 C        -3.682076        -0.752640         1.659023
 C        -4.017371        -0.836693         3.112643
 O        -4.550567        -0.851221         0.747774
 H         2.445526         0.014041        -1.327294
 H         2.003237         1.421711        -0.327238
 H         2.725392        -0.076887         0.492101
 H        -2.277702        -1.871543        -0.076659
 H        -3.591025        -0.454451        -1.377466
 H        -2.605697         1.035017        -0.921720
 H        -1.970918        -0.141584        -2.025084
 H        -5.068306        -0.574471         3.145459
 H        -3.889890        -1.867280         3.331791
 H        -3.403058        -0.193012         3.755123
