19
Iteration:   571
 C         1.731859         0.524135         0.082406
 C         0.349111         0.300213         0.007613
 C        -0.811143        -0.110960         0.089968
 C        -2.232257        -0.336397        -0.283887
 C        -2.829575         0.839520        -1.164142
 O        -2.906977        -0.249712         1.021592
 C        -3.336820        -1.430142         1.586006
 C        -3.758832        -1.142642         3.021227
 O        -3.309537        -2.546638         1.006893
 H         2.173945        -0.407823         0.649029
 H         2.251724         0.553580        -0.820105
 H         2.135703         1.354455         0.655870
 H        -2.365354        -1.296027        -0.762157
 H        -2.361945         1.798969        -0.794931
 H        -2.503652         0.876613        -2.166753
 H        -3.925623         0.849050        -1.148597
 H        -4.098776        -0.045923         3.128611
 H        -4.520059        -1.912593         3.415668
 H        -2.770273        -1.111637         3.635039
