19
Iteration:  2597charge 0 multiplicity 1
 C         1.986435        -0.133485         0.281232
 C         0.564246        -0.271703        -0.090790
 C        -0.667847        -0.343843        -0.232059
 C        -2.163459        -0.288292        -0.287173
 C        -2.806315         0.813052        -1.038519
 O        -2.650802        -0.120791         1.087468
 C        -3.466946        -1.114833         1.636880
 C        -3.950790        -0.703219         2.945048
 O        -3.789513        -2.092886         0.975872
 H         2.665503        -0.286950        -0.704349
 H         2.189902         0.859912         0.709760
 H         2.349220        -0.880048         0.972388
 H        -2.667709        -1.201605        -0.648440
 H        -2.267668         1.716950        -0.986846
 H        -3.124491         0.379662        -2.068384
 H        -3.730564         1.055202        -0.398869
 H        -3.189845        -0.576632         3.717358
 H        -4.673991         0.163567         2.904625
 H        -4.545834        -1.645332         3.225557
