19
Iteration:  4301
 C         1.687614        -0.891548        -0.195148
 C         0.228674        -0.877330        -0.155020
 C        -0.926734        -0.601296        -0.157789
 C        -2.300374        -0.062691        -0.329752
 C        -2.362838         1.327481        -0.866627
 O        -3.021536         0.278544         1.006707
 C        -3.326258        -0.932566         1.691949
 C        -4.041197        -0.644342         2.976285
 O        -3.042914        -2.023778         1.313596
 H         2.026228        -1.824165         0.325426
 H         2.148305        -1.055923        -1.196505
 H         2.218294         0.066349         0.194442
 H        -3.165575        -0.695871        -0.659186
 H        -3.415671         1.503164        -1.206290
 H        -2.006669         1.804566        -0.049333
 H        -1.693768         1.699042        -1.629815
 H        -4.935738        -1.278643         2.968998
 H        -3.422104        -0.824559         3.846455
 H        -4.322776         0.380925         3.037374
