19
Iteration:   394charge 0 multiplicity 1
 C         1.580908        -0.131729         0.275416
 C         0.165485         0.061944         0.108156
 C        -1.012196         0.194531        -0.164880
 C        -2.423588        -0.062198        -0.364818
 C        -3.139078         1.106918        -1.198271
 O        -3.128531        -0.145026         0.908245
 C        -2.951352        -1.367970         1.647432
 C        -3.967776        -1.341046         2.758376
 O        -2.256169        -2.370503         1.411004
 H         2.141223         0.750012         0.681373
 H         1.891197        -0.996668         0.852788
 H         1.941013        -0.256810        -0.764172
 H        -2.513918        -1.007073        -0.952637
 H        -3.145430         2.050698        -0.719975
 H        -2.600856         1.139162        -2.201120
 H        -4.153609         0.816757        -1.462334
 H        -3.404795        -1.425558         3.713745
 H        -4.577583        -0.441215         2.786770
 H        -4.518113        -2.244251         2.551878
