19
Iteration:  4138charge 0 multiplicity 1
 C         1.117623        -1.413840         0.582451
 C        -0.055060        -0.694354         0.001314
 C        -1.060576        -0.235066        -0.445516
 C        -2.443244         0.250170        -0.433776
 C        -2.742125         1.538489        -1.114594
 O        -3.022162         0.208027         0.879411
 C        -2.988427        -0.943150         1.580617
 C        -3.509370        -0.895266         2.955012
 O        -2.473583        -2.012657         1.238665
 H         0.850975        -2.404867         0.266167
 H         2.049391        -1.127299         0.157635
 H         1.216892        -1.388385         1.632572
 H        -2.821043        -0.569830        -0.977945
 H        -3.691967         1.374697        -1.779180
 H        -2.748966         2.328628        -0.380224
 H        -2.034766         1.831030        -1.928914
 H        -3.817700         0.108916         3.202980
 H        -4.258838        -1.682494         3.107875
 H        -2.713624        -1.199730         3.614850
