19
Iteration:  4479charge 0 multiplicity 1
 C         2.055046        -0.786292        -0.309505
 C         0.682277        -0.306664        -0.274866
 C        -0.478425        -0.183963        -0.161436
 C        -1.888583        -0.445480        -0.128502
 C        -2.935002         0.539913        -0.822987
 O        -2.417996        -0.235461         1.411065
 C        -3.618859        -0.743827         1.689249
 C        -3.945476        -0.664028         3.102835
 O        -4.318268        -1.334421         0.776762
 H         2.652083        -0.719965         0.710510
 H         1.869754        -1.871972        -0.652767
 H         2.537863        -0.196101        -1.180194
 H        -2.300906        -1.510236        -0.382273
 H        -3.843337         0.032461        -0.793484
 H        -3.192528         1.475611        -0.251574
 H        -2.687274         0.842517        -1.838570
 H        -3.175178        -1.309578         3.559292
 H        -3.756914         0.287996         3.614261
 H        -4.877645        -1.134952         3.389491
