19
Iteration:   148
 C         1.725678         0.396640         0.319882
 C         0.302314         0.152224         0.024018
 C        -0.912536        -0.001447        -0.000596
 C        -2.398637        -0.208783        -0.351731
 C        -2.957346         0.899499        -1.173169
 O        -3.140549        -0.203099         1.026262
 C        -3.220335        -1.418778         1.558892
 C        -3.658840        -1.358339         2.999042
 O        -2.858162        -2.405506         0.911149
 H         2.313417        -0.415901         0.193228
 H         2.191403         1.247078        -0.169071
 H         1.773688         0.600869         1.530498
 H        -2.557067        -1.167691        -0.853908
 H        -2.689326         2.007079        -0.798464
 H        -2.609591         0.677098        -2.313855
 H        -4.118127         0.856601        -0.956050
 H        -4.551434        -1.995688         3.207281
 H        -2.776669        -1.639259         3.597448
 H        -3.652809        -0.314439         3.357573
