19
Iteration:  3298charge 0 multiplicity 1
 C         1.656386        -0.953090         0.140130
 C         0.219608        -0.636634         0.028130
 C        -0.873108        -0.269127        -0.357199
 C        -2.290372         0.015625        -0.440576
 C        -2.665655         1.300960        -1.129556
 O        -3.109477        -0.079465         0.795930
 C        -3.179532        -1.003205         1.696911
 C        -4.405221        -0.748016         2.638757
 O        -2.454383        -1.910631         1.905849
 H         1.805562        -2.030312         0.412269
 H         2.361511        -0.694039        -0.704534
 H         1.953132        -0.334046         0.980636
 H        -2.711505        -0.692505        -1.228918
 H        -3.635392         1.283823        -1.547333
 H        -2.259911         2.171061        -0.479190
 H        -1.862221         1.423028        -1.972754
 H        -4.905893         0.206780         2.413326
 H        -5.102188        -1.574098         2.596622
 H        -4.238927        -0.731067         3.721240
