19
Iteration:  3656
 C         2.119276         0.003565        -0.107722
 C         0.619467         0.015983        -0.081676
 C        -0.565626        -0.322842        -0.002877
 C        -1.896515        -0.770187        -0.161960
 C        -2.680272        -0.041533        -1.209398
 O        -2.442015        -0.564252         1.239012
 C        -3.692453        -0.719534         1.650506
 C        -3.770738        -0.795121         3.126164
 O        -4.672250        -0.981913         0.897314
 H         2.703842        -0.523085        -0.891919
 H         2.540698         0.992843         0.005191
 H         2.515934        -0.550605         0.775417
 H        -1.914128        -1.853079        -0.406723
 H        -3.499658        -0.473880        -1.687430
 H        -2.808306         1.029577        -0.874697
 H        -1.908870         0.048549        -2.058207
 H        -4.685951        -0.363568         3.535775
 H        -3.903626        -1.876078         3.452287
 H        -2.937801        -0.442743         3.733431
