19
Iteration:   806charge 0 multiplicity 1
 C         1.688014         1.100384        -0.162411
 C         0.611368         0.125499        -0.075002
 C        -0.525482        -0.343561        -0.042938
 C        -1.944300        -0.649930        -0.066576
 C        -2.578746         0.344137        -0.956112
 O        -2.405404        -0.556052         1.321614
 C        -3.614409        -1.239412         1.549259
 C        -3.964620        -1.256071         3.147568
 O        -4.179517        -1.813499         0.656562
 H         1.300919         1.806221        -0.954823
 H         1.843884         1.630839         0.898528
 H         2.503631         0.647472        -0.516507
 H        -2.191984        -1.641759        -0.499804
 H        -2.787887         1.281402        -0.409902
 H        -1.896683         0.651799        -1.700942
 H        -3.412253        -0.102104        -1.471210
 H        -3.141994        -1.347170         3.835144
 H        -4.317356        -0.293163         3.417175
 H        -4.703578        -2.044642         3.342010
