19
Iteration:  3077
 C         1.827750        -0.708469         0.335024
 C         0.332865        -0.339196         0.137685
 C        -0.854543        -0.130174        -0.081075
 C        -2.297569        -0.162034        -0.285390
 C        -2.805364         0.796795        -1.352103
 O        -2.833364         0.117177         1.045548
 C        -3.287496        -0.982075         1.581383
 C        -3.916334        -0.658784         2.925862
 O        -3.234181        -2.105606         1.019576
 H         1.904425        -1.044448         1.427352
 H         2.119743        -1.635258        -0.161085
 H         2.509970        -0.069171        -0.065048
 H        -2.681947        -1.159452        -0.338122
 H        -3.920171         0.870242        -1.117831
 H        -2.573648         1.819794        -1.061692
 H        -2.532722         0.465818        -2.308263
 H        -3.157674        -0.117456         3.429936
 H        -4.639824         0.130944         2.817621
 H        -4.030167        -1.564233         3.514369
