19
Iteration:  2291charge 0 multiplicity 1
 C         1.573823        -0.780788         0.311887
 C         0.225985        -0.353202        -0.067403
 C        -0.973104        -0.065609        -0.007458
 C        -2.293933         0.027590        -0.469733
 C        -2.711171         1.353489        -1.024809
 O        -3.401524        -0.199622         0.632801
 C        -3.235718        -1.211429         1.607633
 C        -3.861478        -0.851961         2.866863
 O        -2.458325        -2.117298         1.467552
 H         1.629099        -0.929588         1.451348
 H         1.990885        -1.672042        -0.138416
 H         2.277568        -0.035649         0.116422
 H        -2.440328        -0.854167        -1.177100
 H        -2.706535         2.263864        -0.425688
 H        -1.952197         1.398337        -1.873269
 H        -3.702344         1.374389        -1.472006
 H        -4.178578         0.218437         2.782519
 H        -4.764878        -1.424828         3.135521
 H        -3.175774        -1.026702         3.707831
