19
Iteration:  3504charge 0 multiplicity 1
 C         1.937042        -0.086238         0.271091
 C         0.475938        -0.545367        -0.091578
 C        -0.717847        -0.488602        -0.396676
 C        -2.170848        -0.423455        -0.368187
 C        -2.542275         0.771598        -1.276340
 O        -2.643643        -0.207502         1.046582
 C        -3.511570        -1.011351         1.717419
 C        -3.784373        -0.406425         3.085896
 O        -4.059402        -2.026298         1.233585
 H         2.648407        -0.728657        -0.260027
 H         2.243506         0.907398         0.171845
 H         2.075373        -0.248810         1.332027
 H        -2.805608        -1.211801        -0.769790
 H        -3.568537         1.100150        -1.151595
 H        -2.029828         1.656254        -0.811290
 H        -2.066367         0.783779        -2.302348
 H        -4.635081         0.299654         3.040043
 H        -4.047460        -1.128334         3.867511
 H        -2.912375         0.232346         3.417704
