19
Iteration:  2575
 C         1.854347        -0.148949         0.233653
 C         0.421918        -0.348185         0.032820
 C        -0.755124        -0.319565        -0.158030
 C        -2.155948        -0.289563        -0.242326
 C        -2.729428         0.887903        -1.273300
 O        -2.608821        -0.064143         1.180165
 C        -3.463443        -1.086159         1.567389
 C        -3.972794        -0.815305         3.038823
 O        -3.638515        -2.093151         0.934174
 H         2.316173        -0.421394        -0.851487
 H         2.095556         0.918211         0.315798
 H         2.417240        -0.714715         0.981585
 H        -2.603316        -1.288654        -0.384132
 H        -2.046980         1.653120        -1.212042
 H        -2.941398         0.354672        -2.285532
 H        -3.670911         1.330454        -0.787736
 H        -3.106853        -1.004937         3.693360
 H        -4.200413         0.288938         3.186679
 H        -4.793073        -1.502439         3.442574
