19
Iteration:  3670
 C         2.052539         0.103724        -0.164455
 C         0.684477        -0.119130        -0.072429
 C        -0.513475        -0.379455         0.029725
 C        -1.946173        -0.763812        -0.107257
 C        -2.600088         0.004921        -1.333228
 O        -2.405555        -0.573496         1.334779
 C        -3.705545        -0.800047         1.666578
 C        -3.877254        -0.822782         3.215878
 O        -4.604174        -0.896310         0.822750
 H         2.291403        -0.337625        -1.148629
 H         2.376808         1.112183        -0.241250
 H         2.512315        -0.402533         0.668683
 H        -2.025746        -1.925571        -0.167809
 H        -3.535146        -0.601574        -1.451158
 H        -2.987747         1.074305        -0.928020
 H        -1.994844         0.139023        -2.286171
 H        -4.843595        -0.302459         3.427591
 H        -3.871916        -1.933380         3.449341
 H        -3.018075        -0.295897         3.664517
