19
Iteration:  4946charge 0 multiplicity 1
 C         1.808387        -0.907485        -0.205477
 C         0.390316        -0.632928        -0.404823
 C        -0.834168        -0.421900        -0.292810
 C        -2.270683        -0.104236        -0.304029
 C        -2.451437         1.328763        -0.912483
 O        -2.609139         0.018387         1.231433
 C        -3.446664        -0.991226         1.778640
 C        -4.124822        -0.529996         3.101733
 O        -3.502474        -2.071907         1.210837
 H         2.271174        -1.151487        -1.188950
 H         2.354043        -0.147077         0.344417
 H         1.681727        -1.819943         0.450304
 H        -3.082918        -0.763106        -0.655107
 H        -3.361636         1.396944        -1.493438
 H        -2.492844         2.080198        -0.137753
 H        -1.631868         1.447036        -1.520289
 H        -5.170087        -0.948824         3.217026
 H        -3.549313        -1.035551         3.881447
 H        -4.174230         0.566335         3.218618
