19
Iteration:  1677charge 0 multiplicity 1
 C         2.003366         0.444022        -0.209459
 C         0.605707         0.225142        -0.199858
 C        -0.521721        -0.128581         0.076295
 C        -1.875040        -0.530956         0.060846
 C        -2.675925         0.207304        -1.027438
 O        -2.519291        -0.435994         1.369161
 C        -3.640924        -1.175613         1.558146
 C        -3.973458        -1.134908         3.065300
 O        -4.341856        -1.590157         0.705276
 H         2.513459        -0.035906         0.597178
 H         2.331171        -0.044989        -1.220267
 H         2.283984         1.502482        -0.341125
 H        -1.885510        -1.570287        -0.313270
 H        -2.784395         1.190247        -0.720199
 H        -2.077967        -0.087712        -1.974155
 H        -3.632475        -0.210754        -1.072228
 H        -5.052372        -0.822498         3.165746
 H        -3.782952        -2.190671         3.412976
 H        -3.312743        -0.510925         3.710629
