19
Iteration:  1426charge 0 multiplicity 1
 C         1.795349        -0.221371         0.139075
 C         0.321113        -0.150780        -0.060182
 C        -0.882186         0.112736         0.113409
 C        -2.320888        -0.014566        -0.257861
 C        -2.870612         1.032036        -1.283686
 O        -3.090333        -0.124086         0.996063
 C        -3.263872        -1.383546         1.614857
 C        -3.943779        -0.983455         2.944241
 O        -2.855843        -2.381982         1.161353
 H         2.155767         0.692060        -0.121750
 H         1.963194        -0.434297         1.239251
 H         2.405096        -0.984173        -0.494593
 H        -2.333844        -1.053846        -0.696781
 H        -2.562785         2.042052        -1.015302
 H        -2.435621         0.614719        -2.193331
 H        -3.934112         0.998825        -1.316297
 H        -3.578884        -1.636057         3.734752
 H        -3.605234        -0.019061         3.288776
 H        -5.045712        -1.158398         2.861600
