19
Iteration:  4176charge 0 multiplicity 1
 C         1.091583        -1.551629         0.425609
 C        -0.032216        -0.774416         0.035279
 C        -0.944329         0.002536        -0.269468
 C        -2.303980         0.272565        -0.431646
 C        -2.919657         1.402942        -1.156945
 O        -3.005755         0.235677         0.961082
 C        -2.863015        -0.936572         1.690309
 C        -3.713789        -0.851724         2.880699
 O        -2.390893        -1.969653         1.171562
 H         0.916758        -2.643939         0.205058
 H         1.901464        -1.342811        -0.347782
 H         1.549073        -1.460948         1.467969
 H        -2.869474        -0.666023        -0.883320
 H        -3.928682         1.290063        -1.242079
 H        -2.732543         2.350439        -0.533206
 H        -2.326813         1.617931        -2.022091
 H        -4.532357        -0.138028         2.670644
 H        -4.259953        -1.807903         2.956704
 H        -3.209803        -0.533876         3.836801
