19
Iteration:  2342charge 0 multiplicity 1
 C         1.517226        -0.622497         0.404578
 C         0.103563        -0.433940         0.144227
 C        -0.989230        -0.394443        -0.340876
 C        -2.379497        -0.027036        -0.391678
 C        -2.815511         1.273735        -1.173994
 O        -2.917721         0.152233         0.921907
 C        -3.130981        -1.101990         1.617777
 C        -4.037942        -0.996401         2.756186
 O        -2.526283        -2.110084         1.324637
 H         1.730492        -1.333417         1.287809
 H         1.953358        -1.242771        -0.450203
 H         2.170122         0.255945         0.545824
 H        -2.898121        -0.925454        -0.757978
 H        -2.327889         2.204384        -0.629583
 H        -2.556781         1.333141        -2.183207
 H        -3.844486         1.483296        -1.043045
 H        -4.947552        -0.363851         2.908482
 H        -4.157819        -2.047806         2.971388
 H        -3.302257        -0.738389         3.529430
