19
Iteration:   651
 C         1.904480         0.502451         0.216305
 C         0.455255         0.366049        -0.178619
 C        -0.706390         0.042007        -0.114264
 C        -2.114424        -0.364876        -0.155388
 C        -3.158687         0.375884        -1.036706
 O        -2.514867        -0.243021         1.284298
 C        -3.406772        -1.328275         1.525041
 C        -3.829843        -1.188844         3.012732
 O        -3.625948        -2.249420         0.724616
 H         2.639875        -0.313185        -0.142460
 H         2.320059         1.455690        -0.231526
 H         1.922690         0.617171         1.201275
 H        -2.158464        -1.441958        -0.484055
 H        -3.412118         1.221084        -0.457245
 H        -2.780185         0.702240        -2.055469
 H        -4.095566        -0.156327        -1.262720
 H        -4.955058        -1.350443         3.062401
 H        -3.479174        -1.835487         3.865793
 H        -3.560643        -0.212290         3.441528
