19
Iteration:   419charge 0 multiplicity 1
 C         1.630976        -0.001298         0.258232
 C         0.204076         0.002109        -0.010893
 C        -0.973912         0.248574        -0.214335
 C        -2.372940        -0.030690        -0.412840
 C        -3.087562         1.106821        -1.151477
 O        -3.056923        -0.243574         0.906460
 C        -3.100654        -1.490982         1.639613
 C        -4.063930        -1.286259         2.883401
 O        -2.330417        -2.422478         1.413208
 H         2.038360         0.838048         1.063217
 H         2.048213        -0.954158         0.591459
 H         2.164598         0.206716        -0.607887
 H        -2.451758        -0.962060        -1.156987
 H        -2.831125         2.170188        -0.811844
 H        -2.795265         0.893972        -2.166874
 H        -4.169787         1.172444        -1.086532
 H        -3.350633        -0.966226         3.714307
 H        -4.739436        -0.400778         2.691768
 H        -4.617317        -2.270301         3.079699
