19
Iteration:  2881charge 0 multiplicity 1
 C         2.076327         0.232777        -0.140066
 C         0.684216        -0.022082        -0.215026
 C        -0.440738        -0.511239        -0.144443
 C        -1.915021        -0.785478         0.017305
 C        -2.654781         0.273408        -0.862066
 O        -2.368623        -0.637453         1.474358
 C        -3.667859        -0.934508         1.525975
 C        -4.124222        -0.694047         2.995759
 O        -4.464651        -1.174801         0.648143
 H         2.328091         1.096421         0.314188
 H         2.294666        -0.683046         0.452560
 H         2.574822         0.244520        -1.176889
 H        -2.213243        -1.796075        -0.305167
 H        -3.766885         0.249316        -0.551386
 H        -2.130389         1.177015        -0.679671
 H        -2.628270         0.007065        -1.902579
 H        -4.129448        -1.746283         3.340597
 H        -3.456717        -0.254923         3.735489
 H        -5.142881        -0.328534         2.999653
