19
Iteration:  3029charge 0 multiplicity 1
 C         1.982038        -0.440015         0.249079
 C         0.540646        -0.345779         0.113301
 C        -0.642974        -0.178331        -0.087849
 C        -2.183664        -0.268360        -0.327472
 C        -2.691071         0.775978        -1.367896
 O        -2.849896        -0.012634         1.014537
 C        -3.566165        -0.979189         1.635476
 C        -3.794692        -0.755076         3.071429
 O        -3.832006        -2.009024         1.073569
 H         2.213494        -0.315619         1.243686
 H         2.464134        -1.356836        -0.062620
 H         2.362082         0.308704        -0.467007
 H        -2.421168        -1.351476        -0.624033
 H        -3.767115         0.873208        -1.519507
 H        -2.392744         1.781397        -1.034839
 H        -2.087667         0.400979        -2.266089
 H        -2.798475        -0.527711         3.609887
 H        -4.344435         0.200239         3.159729
 H        -4.161808        -1.707214         3.439090
