19
Iteration:  1545charge 0 multiplicity 1
 C         1.933278         0.374218         0.091492
 C         0.578040        -0.068349        -0.092334
 C        -0.641563        -0.175647        -0.276834
 C        -2.097722        -0.360224        -0.330153
 C        -2.746775         0.895143        -1.001107
 O        -2.641819        -0.349362         1.086613
 C        -3.493427        -1.299261         1.628325
 C        -4.005507        -0.915884         2.992230
 O        -3.848828        -2.347579         1.159411
 H         2.053565         1.226049         0.784064
 H         2.614212        -0.521526         0.395107
 H         2.294147         0.713700        -0.891037
 H        -2.430317        -1.276632        -0.845498
 H        -2.292263         1.755283        -0.489862
 H        -2.497380         1.006296        -2.085836
 H        -3.819186         0.979268        -0.840963
 H        -3.534581        -0.097537         3.580065
 H        -5.047420        -0.560990         2.987316
 H        -3.906698        -1.834667         3.648600
