19
Iteration:  2562
 C         1.839170        -0.169174         0.152955
 C         0.390260        -0.350410         0.122505
 C        -0.793500        -0.290074        -0.140584
 C        -2.272319        -0.194216        -0.255649
 C        -2.602329         0.810759        -1.252517
 O        -2.674071         0.001635         1.183695
 C        -3.427158        -1.094192         1.642399
 C        -3.893078        -0.869364         2.995398
 O        -3.621245        -2.107479         0.955894
 H         2.311835        -0.567976        -0.781375
 H         2.082634         0.954544         0.160586
 H         2.289772        -0.708766         1.101191
 H        -2.666539        -1.125827        -0.641709
 H        -1.894518         1.613152        -1.422719
 H        -2.682693         0.412729        -2.354536
 H        -3.645588         1.228239        -1.104170
 H        -3.208305        -1.337904         3.714273
 H        -4.015687         0.220018         3.254308
 H        -4.838003        -1.452581         2.992162
