19
Iteration:  1550charge 0 multiplicity 1
 C         1.996361         0.355747         0.104938
 C         0.578200         0.008637        -0.110892
 C        -0.616762        -0.214842        -0.292348
 C        -2.147300        -0.366877        -0.341565
 C        -2.767706         0.896791        -0.967302
 O        -2.640176        -0.366419         1.087576
 C        -3.455263        -1.263997         1.655275
 C        -4.013549        -0.942765         2.966202
 O        -3.892600        -2.328117         1.164900
 H         2.129631         1.170911         0.846536
 H         2.604425        -0.428882         0.410784
 H         2.239585         0.789578        -0.932708
 H        -2.454308        -1.322682        -0.837466
 H        -2.174845         1.733565        -0.569273
 H        -2.426728         0.897997        -2.017831
 H        -3.866170         0.779238        -0.841409
 H        -3.511280        -0.109600         3.456882
 H        -5.088079        -0.704800         2.907487
 H        -3.917308        -1.724734         3.684506
