19
Iteration:  2220
 C         1.579432        -0.616831         0.247121
 C         0.171892        -0.453994         0.177499
 C        -1.017235        -0.260604         0.000909
 C        -2.450356        -0.042777        -0.477517
 C        -2.686814         1.278296        -1.042219
 O        -3.247577        -0.087245         0.777578
 C        -3.164700        -1.153661         1.561947
 C        -3.885065        -0.817579         2.747574
 O        -2.453152        -2.137221         1.382035
 H         2.051289        -0.210175         1.096339
 H         1.950455        -1.667414         0.194339
 H         2.089325        -0.136761        -0.706506
 H        -2.840804        -0.816622        -1.202320
 H        -2.565392         1.984118        -0.256300
 H        -1.993970         1.403998        -1.865160
 H        -3.751226         1.488845        -1.336823
 H        -3.712523         0.221354         2.926132
 H        -4.971493        -0.791291         2.663668
 H        -3.692364        -1.424221         3.672984
