19
Iteration:  1007
 C         1.904170         0.522100         0.026400
 C         0.494706         0.182221        -0.208164
 C        -0.690245        -0.024887        -0.082947
 C        -2.094062        -0.379688        -0.082250
 C        -2.764879         0.595657        -0.973898
 O        -2.718645        -0.269206         1.207803
 C        -3.516521        -1.327055         1.556519
 C        -3.959356        -1.133317         3.032520
 O        -3.671827        -2.291379         0.851785
 H         2.053254         0.664760         1.038255
 H         2.676316        -0.272019        -0.332565
 H         2.018864         1.557209        -0.538121
 H        -2.221490        -1.510891        -0.355888
 H        -3.108833         1.546605        -0.558637
 H        -1.938964         0.748660        -1.807867
 H        -3.693323         0.109416        -1.287459
 H        -5.044765        -1.358029         3.147454
 H        -3.399217        -1.944495         3.489414
 H        -3.680525        -0.138091         3.349556
