19
Iteration:  3904
 C         1.992783        -0.585901        -0.122052
 C         0.582862        -0.324578        -0.159492
 C        -0.611617        -0.200688        -0.115781
 C        -2.010798        -0.287907        -0.146092
 C        -2.813340         0.830782        -0.795600
 O        -2.513524        -0.107701         1.305493
 C        -3.505148        -0.951388         1.585781
 C        -4.039568        -0.686033         2.953927
 O        -4.011636        -1.872718         0.808282
 H         2.142561        -1.271837        -0.897897
 H         2.696286         0.219504        -0.357919
 H         2.379943        -1.084441         0.752682
 H        -2.294981        -1.376282        -0.350616
 H        -3.844924         0.577657        -0.408079
 H        -2.546701         1.936393        -0.682372
 H        -2.985284         0.537377        -1.906088
 H        -4.417686        -1.579145         3.465056
 H        -3.197833        -0.246226         3.529166
 H        -4.769872         0.116106         2.944282
