19
Iteration:  2463charge 0 multiplicity 1
 C         1.787690        -0.472325         0.163597
 C         0.285575        -0.285654         0.217376
 C        -0.900676        -0.135420         0.011243
 C        -2.247862        -0.084435        -0.423054
 C        -2.643698         1.171761        -1.157529
 O        -2.980220        -0.109474         0.869075
 C        -3.413224        -1.236852         1.517813
 C        -3.736982        -0.675546         2.992363
 O        -3.272573        -2.405352         1.225092
 H         2.097911        -1.436734        -0.102354
 H         2.261956         0.127312        -0.642690
 H         2.242583        -0.244477         1.096796
 H        -2.444389        -0.837264        -1.138708
 H        -2.849876         2.045135        -0.512140
 H        -1.948573         1.631411        -1.874005
 H        -3.501542         0.977681        -1.748362
 H        -4.570415        -1.240787         3.460916
 H        -2.774840        -0.829791         3.479667
 H        -4.141472         0.313439         2.937095
