19
Iteration:  2984
 C         2.020288        -0.052805         0.187509
 C         0.493707        -0.212156        -0.101242
 C        -0.693023        -0.516197        -0.044454
 C        -2.158717        -0.488725        -0.209897
 C        -2.454327         0.725349        -1.195635
 O        -2.663648        -0.222831         1.081491
 C        -3.623152        -0.994382         1.605303
 C        -3.723273        -0.635580         3.064085
 O        -4.240987        -1.887112         0.963116
 H         2.252636         0.201014         1.112496
 H         2.446585        -1.034903         0.132940
 H         2.540988         0.327531        -0.663781
 H        -2.360564        -1.429280        -0.725196
 H        -3.426743         0.736234        -1.558201
 H        -2.488845         1.687891        -0.605121
 H        -1.731617         0.831928        -2.074680
 H        -2.806241        -0.944923         3.643341
 H        -3.903565         0.458105         3.237656
 H        -4.511195        -1.320489         3.435757
