19
Iteration:  2454charge 0 multiplicity 1
 C         1.731708        -0.495772         0.181983
 C         0.340263        -0.284361         0.258769
 C        -0.823341        -0.151989        -0.100282
 C        -2.238230        -0.077934        -0.471148
 C        -2.706700         1.200133        -1.099292
 O        -2.999934        -0.047593         0.827004
 C        -3.377741        -1.230736         1.608592
 C        -3.786464        -0.713707         2.929434
 O        -3.236030        -2.389071         1.246479
 H         1.968868        -1.634700         0.071096
 H         2.132650         0.141325        -0.584068
 H         2.099040        -0.153850         1.072985
 H        -2.467226        -0.970609        -1.170486
 H        -2.857933         1.969963        -0.419779
 H        -1.901767         1.296774        -1.887715
 H        -3.664243         1.051453        -1.593115
 H        -4.554966        -1.418610         3.289900
 H        -2.937056        -0.955411         3.610061
 H        -3.816486         0.366624         3.059516
