19
Iteration:  4049
 C         1.419631        -0.897203         0.394823
 C        -0.012142        -0.770440         0.166361
 C        -1.075480        -0.458847        -0.251468
 C        -2.312852         0.080920        -0.532080
 C        -2.477359         1.581274        -0.996426
 O        -3.117556         0.030362         0.784710
 C        -3.166467        -1.089706         1.527266
 C        -3.261638        -0.691787         3.113399
 O        -3.171008        -2.173233         1.095945
 H         1.953892        -1.698588        -0.011890
 H         1.803770        -0.018437        -0.064351
 H         1.722784        -0.823261         1.419022
 H        -2.857495        -0.471579        -1.308063
 H        -3.436813         2.058323        -0.630251
 H        -1.561228         2.091165        -0.535889
 H        -2.509531         1.648320        -2.077447
 H        -2.474904        -0.017381         3.391055
 H        -4.236576        -0.263774         3.266186
 H        -3.260635        -1.619489         3.704602
