19
Iteration:  1422charge 0 multiplicity 1
 C         1.790677        -0.238125         0.160590
 C         0.301138        -0.163106        -0.057874
 C        -0.886622         0.121540         0.118284
 C        -2.313169        -0.029480        -0.279287
 C        -2.889805         1.003556        -1.238906
 O        -3.084397        -0.107881         0.974017
 C        -3.272793        -1.366423         1.605543
 C        -3.933937        -0.980958         2.909295
 O        -2.815894        -2.385416         1.162592
 H         2.285726         0.753374        -0.222670
 H         2.058383        -0.485986         1.238984
 H         2.198833        -0.970888        -0.400368
 H        -2.362196        -1.012101        -0.677740
 H        -2.604854         2.036721        -0.924583
 H        -2.510704         0.738642        -2.198807
 H        -4.035839         1.018863        -1.277539
 H        -3.651077        -1.660646         3.765376
 H        -3.580979        -0.002183         3.333426
 H        -5.025480        -1.031808         2.887663
