19
Iteration:  2148
 C         1.636796        -0.437808         0.322804
 C         0.190229        -0.258119        -0.075511
 C        -0.989054        -0.354741        -0.243147
 C        -2.373743        -0.078497        -0.334131
 C        -2.683770         1.111328        -1.203490
 O        -2.892141         0.035361         1.016585
 C        -3.152499        -1.080625         1.685520
 C        -4.100988        -0.977868         2.871588
 O        -2.755065        -2.167925         1.240607
 H         2.159501         0.429190         0.932791
 H         1.663455        -1.337347         0.988872
 H         2.274857        -0.717640        -0.466299
 H        -2.804921        -0.933538        -0.859562
 H        -1.980215         2.029130        -0.973625
 H        -2.493021         0.658487        -2.153440
 H        -3.710448         1.439224        -1.074888
 H        -3.645251        -0.811617         3.872931
 H        -4.803509        -0.136083         2.780194
 H        -4.706239        -1.917378         2.874560
