19
Iteration:  1729
 C         1.962896         0.660620        -0.424089
 C         0.659640         0.085818         0.114090
 C        -0.465774        -0.347035         0.103748
 C        -1.905837        -0.644511         0.007601
 C        -2.468776         0.247058        -1.116156
 O        -2.519690        -0.397238         1.304744
 C        -3.693015        -1.097567         1.577099
 C        -3.970785        -1.176312         3.115238
 O        -4.516989        -1.561760         0.791969
 H         2.837399        -0.044396         0.004822
 H         1.961510         0.754939        -1.562925
 H         2.272709         1.550789        -0.025471
 H        -2.085553        -1.624735        -0.408735
 H        -2.354939         1.316241        -0.777362
 H        -1.901074        -0.193435        -2.075481
 H        -3.522720         0.074674        -1.175440
 H        -4.763307        -1.946335         3.181090
 H        -3.107479        -1.440840         3.704885
 H        -4.289732        -0.168771         3.386410
