19
Iteration:  1452charge 0 multiplicity 1
 C         1.819109        -0.083329         0.111729
 C         0.347074        -0.024261         0.004166
 C        -0.871481        -0.052963        -0.086214
 C        -2.311760        -0.091474        -0.292450
 C        -2.670906         0.965125        -1.283730
 O        -3.071125        -0.003378         1.033289
 C        -3.298782        -1.253475         1.691658
 C        -3.947048        -1.162279         3.020191
 O        -3.098296        -2.394335         1.185055
 H         2.322548         0.981983        -0.103743
 H         2.165228        -0.547441         0.985160
 H         2.111276        -0.701280        -0.836090
 H        -2.484938        -1.139366        -0.647171
 H        -2.280878         1.915694        -0.900616
 H        -2.065447         0.588001        -2.247114
 H        -3.779240         0.943701        -1.444871
 H        -3.269766        -1.662325         3.749910
 H        -4.099368        -0.117276         3.344150
 H        -4.801459        -1.803186         2.949860
