19
Iteration:  4970
 C         1.704567        -1.022935        -0.163052
 C         0.310987        -0.630462        -0.236235
 C        -0.871632        -0.512117        -0.277664
 C        -2.211090        -0.046788        -0.182389
 C        -2.611957         1.269965        -0.846266
 O        -2.735644         0.143008         1.206117
 C        -3.322590        -0.959713         1.661993
 C        -3.935949        -0.584430         2.961045
 O        -3.344738        -2.003678         1.143944
 H         2.061843        -1.304221        -1.182351
 H         2.259834        -0.140711         0.185819
 H         1.753104        -1.840365         0.674875
 H        -2.994382        -0.688099        -0.554059
 H        -3.694772         1.316894        -1.105760
 H        -2.340039         2.160310        -0.241602
 H        -2.032452         1.238497        -1.743440
 H        -5.013503        -0.640147         2.706501
 H        -3.745616        -1.344286         3.774206
 H        -3.803321         0.516063         3.198704
