19
Iteration:  1170
 C         1.588943        -0.146185         0.369387
 C         0.174909        -0.057939         0.122900
 C        -0.983848        -0.127868        -0.201948
 C        -2.388804        -0.045909        -0.368502
 C        -3.002089         1.073093        -1.271848
 O        -2.969209        -0.115728         1.004682
 C        -3.088924        -1.317929         1.628518
 C        -3.784231        -1.036865         2.898681
 O        -2.669644        -2.398063         1.133901
 H         2.032012        -1.100009         0.394298
 H         2.195852         0.521877        -0.402917
 H         1.800239         0.263435         1.336365
 H        -2.656551        -1.021410        -0.828631
 H        -3.422598         1.877493        -0.749662
 H        -2.161661         1.501684        -1.966204
 H        -3.823629         0.738760        -1.852883
 H        -3.181245        -0.728938         3.783986
 H        -4.603224        -0.297685         2.844795
 H        -4.226347        -1.967194         3.415319
