19
Iteration:  4127
 C         1.107195        -1.365952         0.561091
 C         0.041673        -0.635027        -0.018082
 C        -1.048302        -0.288002        -0.433737
 C        -2.434976         0.109840        -0.514933
 C        -2.673694         1.575926        -1.104484
 O        -3.144422         0.224248         0.925697
 C        -2.934140        -0.992782         1.589369
 C        -3.451635        -0.848267         2.991302
 O        -2.544513        -2.039527         1.182385
 H         0.992344        -2.435206         0.438249
 H         2.117778        -1.164386         0.332078
 H         0.900406        -1.206545         1.586828
 H        -3.103449        -0.547600        -1.035371
 H        -3.797383         1.629136        -1.425923
 H        -2.744162         2.352423        -0.340574
 H        -1.890758         1.854488        -1.836309
 H        -3.743211         0.153713         3.267756
 H        -4.389284        -1.400652         3.088592
 H        -2.668856        -1.185009         3.654295
