19
Iteration:   992charge 0 multiplicity 1
 C         1.867118         0.612890        -0.058864
 C         0.533633         0.159630        -0.154807
 C        -0.640465        -0.077203        -0.044691
 C        -2.053861        -0.413260        -0.113733
 C        -2.817603         0.555726        -1.130490
 O        -2.622338        -0.294236         1.338487
 C        -3.491726        -1.288130         1.623473
 C        -4.031101        -1.218442         3.047305
 O        -3.736358        -2.193246         0.804639
 H         2.133118         0.903074         1.047593
 H         2.580097        -0.246881        -0.266627
 H         2.194730         1.368906        -0.612392
 H        -2.148839        -1.384600        -0.416385
 H        -3.135115         1.333526        -0.433192
 H        -2.214505         1.047310        -1.788454
 H        -3.649203         0.087672        -1.678387
 H        -5.132259        -1.196977         2.989114
 H        -3.815452        -2.122894         3.709706
 H        -3.562515        -0.309269         3.458581
