19
Iteration:  3995
 C         1.633723        -0.756079         0.184626
 C         0.260463        -0.449928        -0.078379
 C        -0.953698        -0.446995        -0.109155
 C        -2.269926        -0.133846        -0.325826
 C        -2.425280         1.281946        -1.139742
 O        -2.987338         0.165568         1.008631
 C        -3.349386        -1.062818         1.621810
 C        -3.460764        -0.841893         3.173253
 O        -3.545348        -2.079735         0.971227
 H         1.980563        -1.683637        -0.273676
 H         2.368532         0.015041         0.094123
 H         1.587573        -0.945636         1.255022
 H        -2.915626        -0.696938        -1.077964
 H        -3.511726         1.318032        -1.433126
 H        -2.199978         2.160023        -0.402600
 H        -1.731683         1.433376        -1.969149
 H        -2.528968        -1.206365         3.576363
 H        -3.548215         0.218325         3.373058
 H        -4.312443        -1.405056         3.571683
