19
Iteration:  4679charge 0 multiplicity 1
 C         2.040305        -0.330379        -0.137096
 C         0.642172        -0.422312        -0.498857
 C        -0.580530        -0.565080        -0.304896
 C        -2.067106        -0.655775        -0.113356
 C        -2.700865         0.588188        -0.729878
 O        -2.315208        -0.653998         1.296171
 C        -3.676687        -0.801416         1.608542
 C        -3.676824        -0.555126         3.162857
 O        -4.637182        -0.962465         0.869111
 H         2.324241         0.737079         0.176804
 H         2.159093        -0.947181         0.827330
 H         2.603122        -0.897468        -0.889651
 H        -2.315955        -1.648158        -0.567932
 H        -3.804419         0.699587        -0.545515
 H        -2.141319         1.460591        -0.340117
 H        -2.504666         0.668294        -1.721036
 H        -2.681383        -0.717205         3.552564
 H        -4.093332         0.385148         3.516194
 H        -4.193486        -1.299529         3.804559
