19
Iteration:  2274charge 0 multiplicity 1
 C         1.594366        -0.766099         0.252081
 C         0.247835        -0.296549         0.106424
 C        -0.981693        -0.117744         0.032335
 C        -2.410472        -0.015081        -0.457486
 C        -2.672733         1.425053        -1.091990
 O        -3.413548        -0.235029         0.532547
 C        -3.170516        -1.152198         1.502714
 C        -3.849650        -0.814420         2.877719
 O        -2.474301        -2.174128         1.562413
 H         1.823620        -0.955475         1.253917
 H         1.570412        -1.779511        -0.221406
 H         2.499292        -0.108082        -0.216037
 H        -2.557830        -0.780889        -1.187989
 H        -2.801579         1.997443        -0.179185
 H        -1.902572         1.782812        -1.787226
 H        -3.742890         1.343183        -1.495844
 H        -3.994015         0.159327         3.285591
 H        -4.767313        -1.406078         3.043039
 H        -3.095776        -1.202895         3.640512
