19
Iteration:  4701
 C         2.127708        -0.504323        -0.259287
 C         0.674810        -0.357810        -0.358997
 C        -0.524393        -0.423591        -0.265631
 C        -2.009974        -0.464043        -0.134043
 C        -2.761103         0.616188        -0.858077
 O        -2.385113        -0.709375         1.329246
 C        -3.659890        -0.867884         1.664016
 C        -3.764001        -0.548828         3.139269
 O        -4.608937        -1.029418         0.975540
 H         2.553727         0.562007        -0.172869
 H         2.247427        -0.983861         0.770471
 H         2.631349        -1.115375        -1.039648
 H        -2.228480        -1.412905        -0.716280
 H        -3.812371         0.227986        -0.887136
 H        -2.688895         1.627342        -0.413656
 H        -2.382985         0.652499        -1.825924
 H        -2.834947        -0.672395         3.683269
 H        -4.198425         0.431849         3.290324
 H        -4.496889        -1.217414         3.626022
