19
Iteration:  3883
 C         2.105598        -0.544283        -0.206275
 C         0.657493        -0.167823        -0.234871
 C        -0.566362        -0.226953        -0.218741
 C        -2.064405        -0.338328        -0.049037
 C        -2.837758         0.756853        -0.801138
 O        -2.396202        -0.363885         1.375834
 C        -3.572588        -0.968073         1.679870
 C        -4.217671        -0.625512         2.982247
 O        -4.059445        -1.730414         0.786675
 H         2.280762        -1.184065        -0.992669
 H         2.654586         0.379278        -0.351230
 H         2.357281        -1.016141         0.757386
 H        -2.097590        -1.430568        -0.223674
 H        -3.907004         0.919694        -0.752028
 H        -2.225862         1.698561        -0.620398
 H        -2.688488         0.596548        -1.935883
 H        -4.966942        -1.334535         3.317522
 H        -3.539818        -0.396841         3.810746
 H        -4.726066         0.313364         2.884409
