19
Iteration:  3247charge 0 multiplicity 1
 C         1.458929        -0.863814         0.358906
 C         0.138536        -0.613965        -0.127800
 C        -1.062499        -0.503632        -0.160417
 C        -2.387593        -0.162939        -0.421628
 C        -2.360444         1.337253        -1.002044
 O        -3.363436        -0.118338         0.632030
 C        -3.154562        -0.920419         1.626228
 C        -4.212394        -0.784775         2.727923
 O        -2.232396        -1.717534         1.673024
 H         1.513036        -1.848638         0.698152
 H         2.083364        -0.889668        -0.552803
 H         1.991468        -0.020013         0.925605
 H        -2.854769        -0.687703        -1.238452
 H        -3.362873         1.522443        -1.326558
 H        -1.845957         2.117606        -0.357905
 H        -1.717770         1.303216        -1.934392
 H        -4.494589         0.259495         2.940987
 H        -5.107851        -1.392207         2.587830
 H        -3.790332        -1.176657         3.687043
