19
Iteration:  2418
 C         1.694967        -0.566821         0.383135
 C         0.348137        -0.319467        -0.032065
 C        -0.853806        -0.236220        -0.188467
 C        -2.326667        -0.090696        -0.443619
 C        -2.799323         1.193795        -1.093365
 O        -3.006955         0.004785         0.912114
 C        -3.227549        -1.152771         1.610574
 C        -3.918534        -0.835694         2.962862
 O        -2.981134        -2.242567         1.172456
 H         1.874935        -1.522736         0.671845
 H         2.483024        -0.362068        -0.387610
 H         1.931384         0.061528         1.250057
 H        -2.786749        -0.941458        -0.813519
 H        -2.125538         2.063080        -0.765168
 H        -2.516776         1.129591        -2.112126
 H        -3.852562         1.311608        -1.108685
 H        -5.016667        -0.906547         3.038940
 H        -3.408842        -1.498506         3.649967
 H        -3.867338         0.222354         3.147584
