19
Iteration:  1058charge 0 multiplicity 1
 C         1.873923         0.383050         0.082715
 C         0.421109         0.138670         0.228753
 C        -0.747691         0.022429        -0.153637
 C        -2.186983        -0.244898        -0.316152
 C        -2.887163         0.846572        -1.152123
 O        -2.757827        -0.298826         1.036629
 C        -3.399186        -1.386730         1.588490
 C        -3.875593        -1.081840         3.029857
 O        -3.511682        -2.469355         1.046969
 H         2.450327        -0.190313         0.911594
 H         2.110697        -0.246805        -0.811335
 H         2.182629         1.322307        -0.059416
 H        -2.246047        -1.218025        -0.648226
 H        -2.205091         1.682657        -1.138352
 H        -2.902993         0.542788        -2.162785
 H        -3.838655         1.157337        -0.750317
 H        -4.270245        -2.087519         3.320054
 H        -2.932938        -0.922448         3.628190
 H        -4.516427        -0.227943         3.000272
