19
Iteration:  2466charge 0 multiplicity 1
 C         1.791155        -0.447592         0.167355
 C         0.294334        -0.290930         0.195213
 C        -0.912730        -0.132449         0.038126
 C        -2.249439        -0.079200        -0.393858
 C        -2.634587         1.188642        -1.180241
 O        -2.987241        -0.135898         0.874549
 C        -3.410630        -1.214375         1.511638
 C        -3.729842        -0.681583         2.993705
 O        -3.286638        -2.410053         1.212862
 H         2.123277        -1.546639        -0.165221
 H         2.246747         0.141180        -0.594348
 H         2.319528        -0.279158         1.055886
 H        -2.505761        -0.990648        -1.080794
 H        -2.811756         1.970424        -0.529558
 H        -1.884104         1.683470        -1.861146
 H        -3.524207         0.930389        -1.790002
 H        -4.530672        -1.206321         3.527368
 H        -2.744637        -0.749811         3.495040
 H        -4.190147         0.320406         2.885519
