19
Iteration:  2459
 C         1.762726        -0.488009         0.155577
 C         0.297298        -0.281737         0.242487
 C        -0.864913        -0.142567        -0.033213
 C        -2.244103        -0.079360        -0.452966
 C        -2.659874         1.169299        -1.123160
 O        -2.981888        -0.073182         0.853353
 C        -3.407369        -1.257802         1.551412
 C        -3.759257        -0.686762         2.970862
 O        -3.255146        -2.395171         1.237715
 H         2.060801        -1.546460        -0.034551
 H         2.224500         0.145142        -0.654223
 H         2.188702        -0.156848         1.238752
 H        -2.425894        -0.850004        -1.240676
 H        -2.914463         2.087807        -0.449155
 H        -1.949052         1.464254        -1.892474
 H        -3.610224         1.025262        -1.727378
 H        -4.546755        -1.335967         3.357382
 H        -2.829303        -0.898102         3.524974
 H        -4.001858         0.410679         3.011539
