19
Iteration:  1539
 C         1.878859         0.371128         0.069752
 C         0.531527        -0.146927        -0.072064
 C        -0.653310        -0.145574        -0.246145
 C        -2.058611        -0.334507        -0.314317
 C        -2.709515         0.901204        -1.025885
 O        -2.644576        -0.330858         1.086052
 C        -3.527232        -1.313740         1.603267
 C        -3.990384        -0.876875         3.054821
 O        -3.794565        -2.383975         1.129412
 H         1.930975         1.229446         0.755355
 H         2.510985        -0.399287         0.385315
 H         2.440799         0.657867        -0.894367
 H        -2.361580        -1.299162        -0.806582
 H        -2.428868         1.797301        -0.450003
 H        -2.588107         1.045201        -2.119283
 H        -3.795627         1.068686        -0.867053
 H        -3.406071        -0.106059         3.557128
 H        -5.036189        -0.533796         2.970583
 H        -3.994554        -1.843112         3.507107
