19
Iteration:  1024charge 0 multiplicity 1
 C         1.945202         0.497711         0.034648
 C         0.511139         0.204316        -0.134805
 C        -0.675025        -0.067512        -0.006520
 C        -2.101788        -0.335809        -0.145020
 C        -2.856667         0.674940        -1.041753
 O        -2.801111        -0.230518         1.154340
 C        -3.463812        -1.399783         1.557176
 C        -3.870173        -1.108364         2.931480
 O        -3.667696        -2.390736         0.946281
 H         2.142922         0.351156         1.182004
 H         2.466013        -0.262971        -0.506964
 H         2.283851         1.423189        -0.255314
 H        -2.262910        -1.306392        -0.494625
 H        -2.667293         1.631759        -0.547652
 H        -2.501495         0.723352        -1.994105
 H        -3.961040         0.538166        -1.090127
 H        -4.873908        -1.489123         3.147715
 H        -3.160936        -1.542825         3.668192
 H        -3.931588        -0.063203         3.253247
