19
Iteration:  4309charge 0 multiplicity 1
 C         1.703936        -0.823165        -0.201052
 C         0.270235        -0.840949        -0.228169
 C        -0.958479        -0.661820        -0.150224
 C        -2.273827        -0.110816        -0.294531
 C        -2.289524         1.333969        -0.843811
 O        -2.979203         0.188516         0.998328
 C        -3.420243        -0.871604         1.688401
 C        -4.084023        -0.612268         3.047012
 O        -3.086020        -2.024074         1.284999
 H         2.048724        -1.666217         0.362003
 H         1.844672        -1.025450        -1.274569
 H         2.179091         0.156513         0.103552
 H        -2.905226        -0.849506        -0.926299
 H        -3.243476         1.660591        -1.194972
 H        -2.004325         2.049049        -0.020176
 H        -1.632083         1.446253        -1.672145
 H        -4.935809        -1.295363         3.238185
 H        -3.292240        -0.807859         3.804838
 H        -4.487696         0.400983         3.157849
