19
Iteration:  4695charge 0 multiplicity 1
 C         2.101795        -0.472477        -0.189951
 C         0.664642        -0.361989        -0.429481
 C        -0.563216        -0.459232        -0.277774
 C        -1.975826        -0.529794        -0.131057
 C        -2.747437         0.631260        -0.826089
 O        -2.356155        -0.705454         1.372527
 C        -3.686859        -0.816940         1.714425
 C        -3.713312        -0.593759         3.114423
 O        -4.653031        -1.016885         0.919550
 H         2.543952         0.466800        -0.260301
 H         2.197464        -0.949493         0.742497
 H         2.753137        -0.843066        -0.988686
 H        -2.364819        -1.417375        -0.629124
 H        -3.754313         0.295729        -0.793732
 H        -2.595437         1.579203        -0.318573
 H        -2.463735         0.584454        -1.998812
 H        -2.655123        -0.513377         3.473432
 H        -4.125073         0.466759         3.129528
 H        -4.466139        -1.203832         3.597077
