19
Iteration:   398charge 0 multiplicity 1
 C         1.552046        -0.117516         0.253292
 C         0.166076         0.044240         0.112971
 C        -0.987662         0.215122        -0.185256
 C        -2.432799        -0.020323        -0.367157
 C        -3.105065         1.111302        -1.215697
 O        -3.100882        -0.206154         0.914967
 C        -2.975605        -1.381308         1.658444
 C        -3.959127        -1.326049         2.750826
 O        -2.278422        -2.367422         1.421354
 H         2.114534         0.809016         0.738453
 H         1.934909        -0.989384         0.789015
 H         2.067369        -0.200632        -0.678091
 H        -2.500320        -1.105644        -0.848353
 H        -3.263272         2.152692        -0.783889
 H        -2.638224         1.081589        -2.172394
 H        -4.188441         0.943177        -1.339758
 H        -3.421489        -1.426537         3.735318
 H        -4.637062        -0.433016         2.753706
 H        -4.559612        -2.299575         2.664633
