19
Iteration:  4890
 C         1.909311        -0.756247        -0.453050
 C         0.521342        -0.622191        -0.246666
 C        -0.695811        -0.498318        -0.098167
 C        -2.133777        -0.204555        -0.151524
 C        -2.431775         1.253594        -0.794355
 O        -2.782551        -0.147928         1.130861
 C        -3.588294        -1.020358         1.731200
 C        -3.979050        -0.353719         3.093009
 O        -3.840603        -2.035699         1.151796
 H         2.148039        -0.452794        -1.523022
 H         2.570319        -0.108612         0.178924
 H         2.370064        -1.769041        -0.297365
 H        -2.780614        -0.896147        -0.806313
 H        -3.466200         1.234219        -0.950043
 H        -2.228775         2.010536        -0.081095
 H        -1.919576         1.587794        -1.707670
 H        -4.447735        -1.180002         3.668133
 H        -3.015228         0.055876         3.365759
 H        -4.594008         0.526196         2.993022
