19
Iteration:  3728charge 0 multiplicity 1
 C         1.967599         0.368525        -0.493044
 C         0.716312        -0.306282        -0.211245
 C        -0.356548        -0.796810         0.130822
 C        -1.908488        -0.892853         0.073372
 C        -2.431014         0.125353        -0.841484
 O        -2.394125        -0.493461         1.405882
 C        -3.742604        -0.726989         1.588300
 C        -4.129676        -0.779120         3.034826
 O        -4.574463        -0.917146         0.670255
 H         2.525112         0.161079        -1.374680
 H         1.815201         1.479171        -0.338569
 H         2.695533         0.072272         0.277681
 H        -2.271825        -1.980293        -0.004302
 H        -3.614125         0.146054        -0.710563
 H        -2.087583         1.108986        -0.597491
 H        -2.311124        -0.156028        -1.882214
 H        -5.209281        -0.709969         3.156141
 H        -3.886619        -1.720628         3.482419
 H        -3.656312        -0.054151         3.713754
