19
Iteration:  2044charge 0 multiplicity 1
 C         1.817743        -0.273276         0.132398
 C         0.386450         0.042398        -0.081279
 C        -0.789106        -0.096821        -0.070794
 C        -2.245180        -0.256505        -0.290718
 C        -2.611255         0.870455        -1.196866
 O        -2.923730        -0.036688         1.082631
 C        -3.466271        -1.243064         1.628642
 C        -3.921875        -0.819952         2.990123
 O        -3.336737        -2.338186         1.138277
 H         2.550155         0.394526        -0.205484
 H         1.938607        -0.334084         1.205480
 H         2.104696        -1.327816        -0.363863
 H        -2.416985        -1.310929        -0.769181
 H        -2.594349         1.827170        -0.748369
 H        -1.846716         1.008860        -2.080137
 H        -3.555559         0.607491        -1.724970
 H        -4.657118        -1.502930         3.553899
 H        -3.066982        -0.512749         3.670037
 H        -4.435454         0.129512         2.912972
