19
Iteration:  2355charge 0 multiplicity 1
 C         1.527431        -0.613668         0.423657
 C         0.107693        -0.445524         0.124777
 C        -0.985708        -0.379526        -0.387537
 C        -2.419471        -0.008266        -0.471073
 C        -2.781063         1.219482        -1.167167
 O        -2.832830         0.166486         1.043832
 C        -3.075668        -1.015069         1.581024
 C        -4.066268        -1.075156         2.863963
 O        -2.590926        -2.103421         1.262495
 H         1.691679        -1.349789         1.389351
 H         2.050232        -0.923096        -0.529607
 H         1.886978         0.342350         0.657008
 H        -3.104075        -0.809304        -0.951124
 H        -2.142425         2.134562        -0.925682
 H        -2.548342         0.885713        -2.201698
 H        -3.837267         1.374783        -1.126086
 H        -5.047865        -0.497730         2.637141
 H        -4.347934        -2.094809         3.167748
 H        -3.571864        -0.589033         3.691716
