19
Iteration:  3466charge 0 multiplicity 1
 C         1.930851        -0.356950         0.043064
 C         0.494246        -0.278055         0.032519
 C        -0.734722        -0.522967        -0.034969
 C        -2.278528        -0.372855        -0.361793
 C        -2.464122         0.902438        -1.215490
 O        -2.827970        -0.091673         0.918926
 C        -3.448540        -1.000903         1.655657
 C        -3.880858        -0.399756         2.968964
 O        -3.797607        -2.158871         1.338128
 H         2.312490        -1.234042        -0.439128
 H         2.468014         0.530166        -0.360324
 H         2.122927        -0.541701         1.103901
 H        -2.605523        -1.369708        -0.639593
 H        -3.558467         0.929101        -1.420929
 H        -2.046802         1.763845        -0.658082
 H        -2.087548         0.777143        -2.194502
 H        -4.760516         0.188703         2.703886
 H        -4.210548        -1.235360         3.614539
 H        -3.154495         0.203591         3.447513
