19
Iteration:  3342
 C         1.735639        -0.987062         0.051339
 C         0.395118        -0.453792        -0.103270
 C        -0.786900        -0.186062        -0.060964
 C        -2.291138        -0.093940        -0.279809
 C        -2.707824         1.126034        -1.179394
 O        -3.037136         0.053410         0.881761
 C        -3.234679        -0.973103         1.805201
 C        -4.496748        -0.677588         2.624457
 O        -2.605276        -1.990662         1.665117
 H         1.552568        -2.061852        -0.094356
 H         2.516509        -0.705170        -0.721884
 H         2.195551        -0.573513         0.909942
 H        -2.455998        -1.068958        -0.813113
 H        -3.718185         0.925583        -1.154778
 H        -2.377230         2.190475        -1.067682
 H        -2.475613         0.803458        -2.242679
 H        -4.996936         0.170433         2.143927
 H        -5.042156        -1.605250         2.643970
 H        -4.351100        -0.457029         3.698859
