19
Iteration:  1906
 C         2.028243         0.238706         0.119543
 C         0.543890         0.122460         0.011585
 C        -0.582876        -0.234442        -0.318206
 C        -2.025675        -0.549458        -0.295055
 C        -2.801057         0.491875        -1.040403
 O        -2.489955        -0.349522         1.199705
 C        -3.521193        -1.166266         1.603306
 C        -4.013812        -0.754118         2.999452
 O        -4.101794        -2.025522         1.034744
 H         2.347203         0.264821        -1.062523
 H         2.444473         1.290889         0.430623
 H         2.551457        -0.491310         0.649285
 H        -2.329743        -1.537366        -0.641509
 H        -2.711585         1.355610        -0.383685
 H        -2.206491         0.764406        -1.998483
 H        -3.862624         0.108497        -1.256006
 H        -4.003695         0.330739         3.038239
 H        -5.081087        -1.075289         3.054884
 H        -3.314869        -1.141747         3.777409
