19
Iteration:  2361charge 0 multiplicity 1
 C         1.517329        -0.613845         0.438778
 C         0.131057        -0.465459         0.088020
 C        -0.993217        -0.339749        -0.394785
 C        -2.432684        -0.044108        -0.444717
 C        -2.737716         1.193972        -1.209308
 O        -2.822188         0.155180         1.069020
 C        -3.081565        -1.039571         1.624151
 C        -4.059971        -1.069543         2.891114
 O        -2.627388        -2.077099         1.222652
 H         1.669189        -1.243322         1.193353
 H         2.138789        -0.850975        -0.424853
 H         1.874823         0.441934         0.776329
 H        -3.115475        -0.760780        -0.788040
 H        -2.264466         2.156936        -1.005501
 H        -2.605369         0.962922        -2.269419
 H        -3.812455         1.513135        -1.088111
 H        -4.865161        -0.610438         2.360932
 H        -4.319621        -2.090085         3.164353
 H        -3.693669        -0.562209         3.817188
