19
Iteration:  2516charge 0 multiplicity 1
 C         1.868336        -0.309762         0.090850
 C         0.434454        -0.236457         0.024503
 C        -0.770232        -0.291422         0.072411
 C        -2.213024        -0.267987        -0.270077
 C        -2.558577         0.979921        -1.244437
 O        -3.113796         0.034699         0.922222
 C        -3.533220        -1.107034         1.607032
 C        -3.779763        -0.889383         3.071167
 O        -3.455954        -2.170678         1.095119
 H         2.284404        -1.121695        -0.411390
 H         2.411919         0.728123        -0.161822
 H         2.257649        -0.522418         1.238285
 H        -2.510806        -1.177842        -0.785314
 H        -2.325368         2.008067        -0.654342
 H        -1.718403         1.083196        -1.977870
 H        -3.528955         0.957570        -1.725629
 H        -3.457574        -1.888452         3.472591
 H        -3.020785        -0.156988         3.400224
 H        -4.768729        -0.607245         3.427756
