19
Iteration:  3392charge 0 multiplicity 1
 C         1.777526        -0.800667        -0.087296
 C         0.418390        -0.458063         0.029023
 C        -0.793685        -0.232080         0.074209
 C        -2.200219        -0.063706        -0.238495
 C        -2.568637         0.855772        -1.350656
 O        -2.966811         0.168714         0.994554
 C        -3.315328        -0.905919         1.711797
 C        -4.380953        -0.699989         2.878202
 O        -2.997137        -2.030966         1.406301
 H         1.970104        -1.849833        -0.473972
 H         2.225726        -0.121900        -0.779867
 H         2.291028        -0.611910         0.949825
 H        -2.249027        -1.143599        -0.367000
 H        -3.743809         0.667063        -1.656629
 H        -2.272909         1.857165        -1.162054
 H        -2.035385         0.510568        -2.210460
 H        -5.214500        -0.018212         2.554032
 H        -4.764715        -1.761056         2.977445
 H        -4.111611        -0.395920         3.891432
