19
Iteration:  1879
 C         2.026826         0.342597         0.055555
 C         0.625774        -0.040841        -0.074481
 C        -0.553933        -0.128957        -0.034676
 C        -1.956441        -0.489247        -0.244243
 C        -3.002000         0.455232        -1.012980
 O        -2.399220        -0.583562         1.211530
 C        -3.587011        -1.119069         1.546391
 C        -3.932671        -0.614934         2.950370
 O        -4.188547        -2.014419         0.905614
 H         2.660776         0.226729        -0.781307
 H         2.043789         1.377688         0.212199
 H         2.613450        -0.185366         0.946692
 H        -2.096700        -1.481393        -0.771113
 H        -2.948264         1.414768        -0.443515
 H        -2.640460         0.600909        -1.988926
 H        -3.851883        -0.135749        -0.926683
 H        -3.331287         0.317335         3.033972
 H        -4.970799        -0.418504         3.220871
 H        -3.625677        -1.359206         3.708366
