19
Iteration:  3594charge 0 multiplicity 1
 C         2.072881        -0.061455         0.255957
 C         0.613234        -0.295522        -0.017372
 C        -0.601352        -0.290822        -0.263921
 C        -2.065445        -0.579118        -0.311360
 C        -2.963222         0.202801        -1.291608
 O        -2.346140        -0.471082         1.144699
 C        -3.532741        -0.788793         1.630012
 C        -3.647715        -0.649774         3.121816
 O        -4.475788        -1.297921         1.003677
 H         2.781651        -0.567557        -0.430469
 H         2.280882         0.978900         0.399949
 H         2.147025        -0.461536         1.243809
 H        -1.939268        -1.652372        -0.440088
 H        -3.977653         0.050876        -1.098445
 H        -2.812363         1.345622        -1.210100
 H        -2.605260        -0.153929        -2.275486
 H        -4.568088        -0.050480         3.229251
 H        -3.965894        -1.693775         3.352462
 H        -2.810883        -0.260458         3.687608
