19
Iteration:  3630charge 0 multiplicity 1
 C         2.112199        -0.073164         0.071151
 C         0.672169         0.007854        -0.081187
 C        -0.500716        -0.256420        -0.202836
 C        -1.846445        -0.677913        -0.214790
 C        -2.779877         0.005448        -1.189036
 O        -2.465424        -0.505474         1.234111
 C        -3.758082        -0.853404         1.597618
 C        -3.614426        -0.730477         3.083593
 O        -4.747112        -1.091211         0.951914
 H         2.751969        -0.655862        -0.592214
 H         2.740801         0.885442         0.255083
 H         2.263027        -0.681289         1.019809
 H        -1.932121        -1.758553        -0.399562
 H        -3.788299        -0.511625        -1.296559
 H        -2.780796         0.977186        -0.876376
 H        -2.464304         0.058621        -2.174175
 H        -4.449827        -0.146747         3.480851
 H        -3.772630        -1.634732         3.590726
 H        -2.713263        -0.357356         3.556484
