19
Iteration:  4129
 C         1.108168        -1.361639         0.562060
 C         0.032424        -0.653830        -0.006127
 C        -1.058886        -0.279166        -0.445709
 C        -2.430581         0.134423        -0.490925
 C        -2.683072         1.571247        -1.109174
 O        -3.129279         0.224792         0.925170
 C        -2.944113        -0.966855         1.588165
 C        -3.455181        -0.867884         2.974829
 O        -2.530204        -2.044121         1.195677
 H         0.923064        -2.465120         0.386833
 H         2.139787        -1.190090         0.309382
 H         0.933325        -1.240900         1.589987
 H        -3.067740        -0.617391        -1.101441
 H        -3.773113         1.567324        -1.438755
 H        -2.769137         2.351317        -0.391660
 H        -1.894462         1.896923        -1.856144
 H        -3.780082         0.158106         3.253964
 H        -4.399401        -1.420017         3.106036
 H        -2.661103        -1.170478         3.637907
