19
Iteration:  1177charge 0 multiplicity 1
 C         1.628720        -0.154008         0.369857
 C         0.176067        -0.044484         0.139631
 C        -0.993380        -0.118491        -0.209974
 C        -2.440879        -0.054287        -0.326688
 C        -2.991219         1.067243        -1.248641
 O        -3.011176        -0.135409         0.969588
 C        -3.065306        -1.342638         1.578460
 C        -3.777630        -1.040107         2.893096
 O        -2.641448        -2.354689         1.164916
 H         1.945493        -1.318259         0.251063
 H         2.181629         0.416348        -0.277029
 H         1.751521         0.184215         1.391679
 H        -2.751201        -0.924334        -0.871082
 H        -3.396050         1.907433        -0.649067
 H        -2.221780         1.534263        -1.801450
 H        -3.784487         0.611308        -1.839151
 H        -3.033454        -0.430863         3.497145
 H        -4.604709        -0.328119         2.747854
 H        -4.158785        -1.916323         3.368175
