19
Iteration:  3777
 C         1.881052         0.227530        -0.553329
 C         0.718644        -0.313147        -0.116811
 C        -0.423850        -0.644421         0.197242
 C        -1.953038        -0.796852        -0.008148
 C        -2.258560         0.489069        -0.890963
 O        -2.425003        -0.734721         1.386408
 C        -3.780268        -0.848579         1.648994
 C        -4.225988        -0.550429         3.054688
 O        -4.468949        -1.221813         0.764899
 H         2.025168        -0.209342        -1.636150
 H         1.719317         1.309077        -0.720192
 H         2.926231         0.065152        -0.141333
 H        -2.148431        -1.783151        -0.350427
 H        -3.233837         0.732631        -1.098931
 H        -1.771207         1.383881        -0.416943
 H        -1.757202         0.174096        -1.796682
 H        -5.326133        -0.570435         2.950987
 H        -3.890277        -1.332295         3.788030
 H        -3.851535         0.434374         3.353290
