19
Iteration:  4029
 C         1.552450        -0.794364         0.324176
 C         0.117206        -0.754115         0.128830
 C        -1.010275        -0.402297        -0.227117
 C        -2.459403        -0.008705        -0.424388
 C        -2.423511         1.435673        -0.979706
 O        -3.077820         0.166398         0.874398
 C        -3.285329        -1.103713         1.528661
 C        -3.296560        -0.732121         2.966401
 O        -3.307359        -2.170632         1.107555
 H         2.082300        -1.705700        -0.111078
 H         2.083528         0.063016        -0.095656
 H         1.728495        -0.908444         1.379702
 H        -2.980841        -0.771841        -1.175933
 H        -3.466654         1.939315        -0.798068
 H        -1.680427         2.020030        -0.341213
 H        -2.302037         1.440907        -2.047145
 H        -2.284593        -0.439537         3.193916
 H        -3.982136         0.070004         3.255809
 H        -3.484569        -1.666382         3.536099
