19
Iteration:  3772charge 0 multiplicity 1
 C         1.899901         0.280989        -0.579545
 C         0.656571        -0.344326        -0.113063
 C        -0.472490        -0.645015         0.170577
 C        -1.933041        -0.791338         0.047802
 C        -2.180833         0.459833        -0.913780
 O        -2.417936        -0.745949         1.405466
 C        -3.744586        -0.836158         1.653554
 C        -4.237708        -0.551780         3.120649
 O        -4.497583        -1.200811         0.709829
 H         2.107030        -0.090306        -1.546527
 H         1.832830         1.380373        -0.739156
 H         2.827315         0.009141        -0.053343
 H        -2.216271        -1.802824        -0.441130
 H        -3.369678         0.508156        -1.030182
 H        -1.649492         1.285424        -0.505835
 H        -1.810325         0.177656        -1.939656
 H        -5.307958        -0.555471         2.986305
 H        -3.859595        -1.395091         3.671826
 H        -3.874786         0.424124         3.451295
