19
Iteration:  1607
 C         1.949254         0.379403        -0.033112
 C         0.556485         0.059998        -0.163554
 C        -0.670793        -0.051954        -0.071672
 C        -2.069423        -0.507277        -0.041672
 C        -2.895178         0.489149        -0.923169
 O        -2.424102        -0.474212         1.296634
 C        -3.472482        -1.202066         1.577096
 C        -3.975381        -0.841861         2.958384
 O        -3.988886        -2.001788         0.737451
 H         2.292980         0.552540         1.102880
 H         2.480611        -0.485606        -0.411659
 H         2.317844         1.132353        -0.677584
 H        -2.107727        -1.550611        -0.265904
 H        -2.934484         1.485752        -0.330489
 H        -2.448324         0.427336        -1.867303
 H        -4.046253         0.308377        -1.101478
 H        -3.931410         0.226969         3.035455
 H        -4.892321        -1.373981         3.028612
 H        -3.292158        -1.356183         3.629827
