19
Iteration:  1604charge 0 multiplicity 1
 C         1.954698         0.368910        -0.019415
 C         0.533938         0.075178        -0.172114
 C        -0.696131        -0.051869        -0.079402
 C        -2.093868        -0.510317        -0.041248
 C        -2.868749         0.512909        -0.909741
 O        -2.433355        -0.483641         1.288018
 C        -3.488256        -1.202870         1.554980
 C        -3.963676        -0.822971         2.947439
 O        -3.960331        -2.022647         0.756060
 H         2.189801         0.510186         1.010328
 H         2.479810        -0.518835        -0.273537
 H         2.399280         1.221397        -0.738193
 H        -2.174493        -1.604574        -0.376869
 H        -2.821111         1.470953        -0.321093
 H        -2.372642         0.434298        -1.874375
 H        -3.959299         0.285199        -1.048530
 H        -3.839959         0.259044         3.126481
 H        -4.914096        -1.368166         3.088552
 H        -3.324326        -1.361061         3.650756
