19
Iteration:  1676
 C         2.015123         0.454353        -0.209993
 C         0.601997         0.217844        -0.195782
 C        -0.522162        -0.124370         0.067655
 C        -1.871407        -0.531719         0.053351
 C        -2.685450         0.203415        -1.020959
 O        -2.520761        -0.431802         1.370641
 C        -3.640180        -1.177975         1.560876
 C        -3.976519        -1.132187         3.058278
 O        -4.339739        -1.592521         0.707241
 H         2.543979        -0.060020         0.622712
 H         2.337759        -0.067703        -1.210387
 H         2.287671         1.463738        -0.343570
 H        -1.899498        -1.548932        -0.317162
 H        -2.785741         1.212904        -0.707522
 H        -2.088101        -0.070156        -1.991607
 H        -3.634751        -0.238940        -1.043948
 H        -5.033291        -0.812541         3.180649
 H        -3.803659        -2.182916         3.395581
 H        -3.327260        -0.540662         3.729844
