19
Iteration:  1161
 C         1.577193        -0.079001         0.388675
 C         0.219454        -0.114492         0.078483
 C        -0.959939        -0.081295        -0.198071
 C        -2.365958        -0.111953        -0.456752
 C        -2.995277         1.076411        -1.279014
 O        -2.924222        -0.043902         1.030423
 C        -3.073114        -1.331365         1.627124
 C        -3.836262        -1.097494         3.021790
 O        -2.759913        -2.390187         1.137023
 H         1.995591        -1.009207         0.434610
 H         2.110741         0.490462        -0.520836
 H         1.949081         0.510360         1.338818
 H        -2.663215        -1.178083        -0.764550
 H        -3.264308         1.955104        -0.613520
 H        -2.232010         1.323117        -2.115563
 H        -3.848455         0.702512        -1.935565
 H        -3.099065        -0.986545         3.794868
 H        -4.485686        -0.247201         2.805457
 H        -4.388508        -2.089283         3.032480
