19
Iteration:   678charge 0 multiplicity 1
 C         1.850134         0.589534         0.134011
 C         0.455359         0.312585        -0.037031
 C        -0.705132         0.142577        -0.294193
 C        -1.995754        -0.394744        -0.125806
 C        -3.028327         0.270027        -0.977475
 O        -2.439223        -0.361908         1.274432
 C        -3.422250        -1.262641         1.557305
 C        -3.901321        -1.261114         2.993050
 O        -3.794805        -2.094363         0.763565
 H         2.371145        -0.012394        -0.537187
 H         2.089197         1.657666        -0.083352
 H         2.183342         0.271992         1.244122
 H        -1.929782        -1.420673        -0.521651
 H        -3.307415         1.311320        -0.578884
 H        -2.648967         0.302279        -1.979646
 H        -4.018911        -0.233034        -0.970797
 H        -4.747283        -1.890699         3.049943
 H        -3.189623        -1.521510         3.730986
 H        -4.180606        -0.255196         3.351624
