19
Iteration:  4827
 C         2.037499        -0.685087        -0.559045
 C         0.569907        -0.568486        -0.266782
 C        -0.650640        -0.489267        -0.145280
 C        -2.103202        -0.233667        -0.042477
 C        -2.392812         0.925116        -1.123480
 O        -2.574903         0.001947         1.454450
 C        -3.631980        -0.861492         1.805831
 C        -4.174496        -0.687545         3.242552
 O        -4.053048        -1.724228         0.957027
 H         2.137599         0.105754        -1.297554
 H         2.578806        -0.336386         0.311961
 H         2.366547        -1.723503        -0.876064
 H        -2.523762        -1.141579        -0.384866
 H        -3.412979         1.330503        -0.859386
 H        -1.765750         1.822270        -0.985438
 H        -2.422762         0.451354        -2.097506
 H        -3.910855        -1.566873         3.940902
 H        -3.668384         0.128306         3.812075
 H        -5.289611        -0.634789         3.246721
