19
Iteration:  1514
 C         1.815458         0.325853         0.064539
 C         0.474572        -0.251014        -0.051590
 C        -0.760644        -0.238378        -0.041289
 C        -2.211319        -0.266131        -0.177214
 C        -2.726437         0.906959        -1.056834
 O        -2.786812        -0.229474         1.121912
 C        -3.402501        -1.303107         1.635524
 C        -3.877467        -0.877473         2.932989
 O        -3.561129        -2.367524         0.981758
 H         1.819635         1.264252         0.418617
 H         2.581422        -0.317843         0.562683
 H         2.298599         0.325724        -1.008842
 H        -2.614305        -1.179685        -0.737814
 H        -2.526841         1.830836        -0.603334
 H        -2.199633         0.853631        -2.062596
 H        -3.721466         1.026487        -1.289625
 H        -2.996362        -0.351935         3.357414
 H        -4.665097        -0.107387         2.788174
 H        -4.249163        -1.714680         3.567561
