19
Iteration:  1763charge 0 multiplicity 1
 C         1.921567         0.754332        -0.294497
 C         0.732899        -0.148690        -0.081295
 C        -0.429314        -0.390583         0.148118
 C        -1.903665        -0.651365        -0.025173
 C        -2.607507         0.241817        -0.975337
 O        -2.491238        -0.436213         1.296528
 C        -3.708789        -1.020721         1.560355
 C        -3.970543        -1.028151         3.126314
 O        -4.442250        -1.593494         0.685518
 H         2.863572         0.040275        -0.323732
 H         1.961788         1.381250        -1.273543
 H         2.050644         1.347496         0.524106
 H        -2.072808        -1.697167        -0.218428
 H        -2.551626         1.307904        -0.878419
 H        -2.260314         0.174139        -2.136799
 H        -3.594092        -0.181254        -0.985368
 H        -4.064791        -2.135322         3.353444
 H        -3.048237        -0.698563         3.626211
 H        -4.877940        -0.478658         3.419824
