19
Iteration:  3920
 C         1.999078        -0.660001        -0.115463
 C         0.582589        -0.437457        -0.064456
 C        -0.626529        -0.180151        -0.050848
 C        -2.125259        -0.166998        -0.093634
 C        -2.910319         0.876037        -0.958132
 O        -2.574076        -0.052749         1.207573
 C        -3.509614        -0.970383         1.585654
 C        -3.886503        -0.739873         2.966893
 O        -3.936109        -1.904291         0.872548
 H         2.469963        -1.386605        -0.888859
 H         2.527540         0.315819        -0.225348
 H         2.352997        -0.983310         0.894916
 H        -2.493875        -1.052398        -0.587859
 H        -3.931335         0.971014        -0.636590
 H        -2.431943         1.741310        -0.549252
 H        -2.671167         0.863123        -1.966520
 H        -4.057755        -1.726770         3.396335
 H        -3.119500        -0.183513         3.491892
 H        -4.866389        -0.229436         2.867648
