19
Iteration:  2224
 C         1.571070        -0.646224         0.214690
 C         0.159643        -0.428995         0.217470
 C        -1.009975        -0.241901        -0.005284
 C        -2.458489        -0.096870        -0.452154
 C        -2.701331         1.310629        -1.048487
 O        -3.244954        -0.079547         0.757945
 C        -3.181029        -1.191289         1.568771
 C        -3.877060        -0.804341         2.734876
 O        -2.439279        -2.133662         1.384356
 H         2.098547        -0.165220         1.145089
 H         1.897654        -1.695525         0.128640
 H         1.921039        -0.114707        -0.562323
 H        -2.747271        -0.840647        -1.258125
 H        -2.577220         1.994695        -0.122312
 H        -1.914868         1.405896        -1.774847
 H        -3.692730         1.503022        -1.358610
 H        -3.584561         0.264983         2.839057
 H        -4.961770        -0.862703         2.569740
 H        -3.609177        -1.237217         3.681250
