19
Iteration:  3590charge 0 multiplicity 1
 C         2.028859        -0.074165         0.275435
 C         0.580560        -0.301404        -0.021702
 C        -0.604233        -0.304902        -0.271522
 C        -2.044873        -0.577590        -0.328181
 C        -2.943218         0.228345        -1.271807
 O        -2.327941        -0.437849         1.165851
 C        -3.536334        -0.810994         1.595278
 C        -3.668657        -0.646684         3.112644
 O        -4.425921        -1.306988         1.022542
 H         2.712431        -0.551517        -0.413356
 H         2.084020         1.026413         0.283303
 H         2.215803        -0.501146         1.290689
 H        -2.141037        -1.745287        -0.548010
 H        -4.056739         0.025287        -1.120754
 H        -2.753487         1.341427        -1.191656
 H        -2.612842        -0.192694        -2.284626
 H        -4.554721        -0.012237         3.187427
 H        -3.934027        -1.694507         3.404996
 H        -2.752597        -0.249566         3.613039
