19
Iteration:   442charge 0 multiplicity 1
 C         1.729667         0.115395         0.237136
 C         0.281937         0.128528        -0.098517
 C        -0.927620        -0.006109        -0.180925
 C        -2.363505        -0.139629        -0.359928
 C        -3.079876         1.042560        -1.050935
 O        -3.159580        -0.248020         0.908920
 C        -3.071641        -1.367121         1.631274
 C        -3.962078        -1.253066         2.794256
 O        -2.517477        -2.402320         1.377943
 H         1.858484         0.652106         1.326703
 H         2.068397        -0.925256         0.426299
 H         2.467448         0.559309        -0.419969
 H        -2.556319        -1.082784        -1.057566
 H        -2.706075         1.998454        -0.492548
 H        -2.992021         1.080294        -2.111259
 H        -4.139027         1.151358        -0.707399
 H        -3.438423        -0.696398         3.615964
 H        -4.825416        -0.594883         2.498647
 H        -4.261253        -2.333512         2.982648
