19
Iteration:  3706charge 0 multiplicity 1
 C         2.006704         0.316361        -0.355579
 C         0.716932        -0.365312        -0.101908
 C        -0.456301        -0.604549         0.011063
 C        -1.878146        -0.862595         0.052481
 C        -2.559997         0.063625        -1.056941
 O        -2.383408        -0.523182         1.422719
 C        -3.726620        -0.671383         1.610461
 C        -4.075889        -0.829408         3.054767
 O        -4.525621        -0.871883         0.749939
 H         2.355295        -0.054110        -1.311242
 H         1.916018         1.453931        -0.399665
 H         2.891563         0.049891         0.237761
 H        -2.048203        -2.013303        -0.063077
 H        -3.732683        -0.161466        -1.072862
 H        -2.539339         1.095938        -0.760453
 H        -2.199149        -0.094402        -2.063861
 H        -5.142595        -0.730739         3.259026
 H        -3.864309        -1.834716         3.342742
 H        -3.523718        -0.265594         3.822484
