19
Iteration:  2070
 C         1.899481        -0.368742         0.211616
 C         0.467079        -0.182297        -0.113971
 C        -0.731542        -0.080019        -0.093755
 C        -2.239761        -0.123506        -0.308970
 C        -2.833841         1.035804        -1.229921
 O        -2.986909        -0.065204         0.943351
 C        -3.355733        -1.181242         1.650807
 C        -3.976241        -0.832753         2.946858
 O        -3.265945        -2.372311         1.291600
 H         2.436840         0.686740         0.053983
 H         2.095268        -0.536136         1.319694
 H         2.416303        -1.077087        -0.313257
 H        -2.338499        -1.074268        -0.861018
 H        -2.916365         2.024223        -0.694165
 H        -2.207161         1.193306        -2.091117
 H        -3.762623         0.578144        -1.662003
 H        -4.111067        -1.770522         3.475466
 H        -3.432149        -0.255519         3.714171
 H        -4.983367        -0.319923         2.867728
