19
Iteration:  1954
 C         1.889689         0.184402         0.063614
 C         0.488446        -0.172936        -0.164451
 C        -0.679876        -0.246713         0.006176
 C        -2.108882        -0.391542        -0.143224
 C        -2.677103         0.609567        -1.231568
 O        -2.702055        -0.078120         1.191634
 C        -3.488445        -1.126034         1.638492
 C        -3.913015        -0.869704         2.988946
 O        -3.815609        -2.145360         0.961027
 H         2.472814         0.636229        -0.660500
 H         1.950387         0.843754         0.909369
 H         2.408551        -0.803408         0.483988
 H        -2.402196        -1.443385        -0.368643
 H        -2.081338         1.584600        -0.961545
 H        -2.379862         0.279505        -2.184044
 H        -3.758096         0.635356        -1.147288
 H        -4.803428        -0.162420         2.959583
 H        -4.339035        -1.781409         3.427318
 H        -3.020045        -0.398370         3.521623
