19
Iteration:  4073charge 0 multiplicity 1
 C         1.423422        -1.034987         0.562288
 C        -0.007724        -0.736549         0.076994
 C        -1.147814        -0.417923        -0.349465
 C        -2.494151         0.107191        -0.522818
 C        -2.490229         1.610919        -0.982947
 O        -3.187320         0.108453         0.803453
 C        -3.091775        -1.043560         1.535398
 C        -3.256722        -0.719882         2.976604
 O        -2.941621        -2.211210         1.159287
 H         1.700190        -2.034992         0.158140
 H         2.156184        -0.400242         0.090740
 H         1.603504        -1.076585         1.599944
 H        -3.220374        -0.398859        -1.223497
 H        -3.460875         2.180678        -0.661256
 H        -1.629063         2.031040        -0.467108
 H        -2.407568         1.685404        -2.074767
 H        -2.776423         0.230464         3.124336
 H        -4.342653        -0.622844         3.132768
 H        -2.884147        -1.476538         3.669974
