19
Iteration:  1929charge 0 multiplicity 1
 C         1.906510         0.191190         0.119900
 C         0.506346         0.108443        -0.145284
 C        -0.640856        -0.357907        -0.198554
 C        -2.068545        -0.438455        -0.195808
 C        -2.690692         0.578255        -1.168231
 O        -2.568963        -0.282472         1.199227
 C        -3.552001        -1.149434         1.659291
 C        -4.009142        -0.773410         3.073477
 O        -3.901774        -2.063942         0.955689
 H         2.514002         0.361754        -0.903336
 H         2.295930         1.060224         0.776289
 H         2.279564        -0.732409         0.530744
 H        -2.383845        -1.444009        -0.458899
 H        -2.424699         1.595474        -0.740516
 H        -2.093947         0.455770        -2.088653
 H        -3.773302         0.240787        -1.308593
 H        -4.515822         0.181958         3.166564
 H        -4.762187        -1.568879         3.340236
 H        -3.127484        -0.854141         3.787437
