19
Iteration:  1129
 C         1.699674         0.082931         0.385510
 C         0.355094        -0.081613        -0.047871
 C        -0.837279        -0.106196        -0.293632
 C        -2.291512        -0.205211        -0.307182
 C        -2.956786         0.922556        -1.135069
 O        -2.995079        -0.033518         0.999881
 C        -3.263429        -1.206250         1.586460
 C        -3.798587        -1.190496         3.005600
 O        -2.967037        -2.338999         1.103909
 H         2.066673        -0.846043         0.735082
 H         2.261969         0.292236        -0.612434
 H         1.743314         1.006527         1.160634
 H        -2.610952        -1.239275        -0.717795
 H        -2.611424         1.989555        -0.859596
 H        -2.470279         0.807708        -2.182461
 H        -4.101279         0.745551        -1.121422
 H        -3.055754        -1.731317         3.556190
 H        -4.010883        -0.237682         3.486374
 H        -4.789030        -1.756055         2.884055
