19
Iteration:  3284charge 0 multiplicity 1
 C         1.619010        -0.921973         0.231130
 C         0.228834        -0.615783        -0.040997
 C        -0.935887        -0.368633        -0.292117
 C        -2.352229        -0.084894        -0.551847
 C        -2.554337         1.400664        -1.119554
 O        -3.191077        -0.043413         0.736928
 C        -3.138201        -1.010721         1.834657
 C        -4.413863        -0.718645         2.660511
 O        -2.341437        -1.921484         1.843391
 H         1.822221        -2.000928         0.522126
 H         2.036218        -0.757888        -0.755669
 H         2.126270        -0.429070         1.030913
 H        -2.861078        -0.923332        -1.071710
 H        -3.584478         1.566176        -1.473454
 H        -2.517216         2.037741        -0.361134
 H        -1.934574         1.574903        -1.901880
 H        -4.910714         0.214521         2.375347
 H        -5.078518        -1.565518         2.336966
 H        -4.086921        -0.772187         3.687805
