19
Iteration:   208
 C         1.490381         0.256686         0.374483
 C         0.100162        -0.017220         0.166409
 C        -1.037638        -0.071083        -0.218650
 C        -2.441704        -0.089834        -0.475408
 C        -2.878069         1.198831        -1.161837
 O        -3.135780        -0.250489         0.820774
 C        -3.030151        -1.449002         1.577815
 C        -3.710435        -1.293993         3.041094
 O        -2.491219        -2.485003         1.215829
 H         2.138003        -0.124529        -0.612953
 H         1.601983         1.369727         0.417429
 H         1.904157        -0.111676         1.220826
 H        -2.856606        -0.832962        -1.189975
 H        -3.047110         1.970463        -0.464221
 H        -2.207721         1.571858        -1.843124
 H        -3.753563         1.046497        -1.730932
 H        -4.476392        -2.028651         3.271852
 H        -2.986050        -1.495533         3.856622
 H        -4.273028        -0.369609         3.157734
