19
Iteration:  4819
 C         2.069308        -0.637805        -0.542912
 C         0.556752        -0.617839        -0.333260
 C        -0.643794        -0.443719        -0.135201
 C        -2.050726        -0.284000        -0.006404
 C        -2.452231         0.900054        -1.094769
 O        -2.594057         0.022845         1.459116
 C        -3.625566        -0.878650         1.784171
 C        -4.150523        -0.740594         3.194847
 O        -4.082564        -1.630882         1.013190
 H         2.409492         0.036472        -1.340494
 H         2.658171        -0.535493         0.356622
 H         2.335531        -1.654340        -0.836523
 H        -2.670286        -1.191736        -0.113445
 H        -3.578798         1.223899        -0.985990
 H        -1.604254         1.694723        -1.104455
 H        -2.268118         0.482529        -2.080356
 H        -3.884952        -1.716198         3.628478
 H        -3.869837         0.222477         3.588410
 H        -5.248754        -0.723797         3.267464
