19
Iteration:   258charge 0 multiplicity 1
 C         1.488538         0.080324         0.437503
 C         0.171780         0.080126        -0.054710
 C        -1.015082        -0.160653        -0.131924
 C        -2.343857        -0.148594        -0.508230
 C        -3.087730         1.156029        -0.962857
 O        -3.260795        -0.359663         0.769937
 C        -3.013226        -1.353603         1.586395
 C        -3.786190        -1.202373         2.836572
 O        -2.250181        -2.249089         1.265003
 H         2.235241         0.189978        -0.342360
 H         1.707070         0.741734         1.308958
 H         1.655688        -1.080889         0.883335
 H        -2.573225        -0.953816        -1.197917
 H        -2.735556         2.001557        -0.203187
 H        -2.920546         1.510668        -2.036660
 H        -4.245931         1.120731        -0.723532
 H        -4.284696        -2.140077         3.188965
 H        -3.088563        -0.948862         3.675664
 H        -4.614305        -0.466644         2.761809
