19
Iteration:   761charge 0 multiplicity 1
 C         1.872250         0.962278        -0.094089
 C         0.526630         0.373642        -0.056030
 C        -0.558111        -0.208688        -0.017341
 C        -1.939707        -0.637257        -0.134338
 C        -2.655914         0.390058        -0.984176
 O        -2.492118        -0.597667         1.173402
 C        -3.594983        -1.293037         1.589127
 C        -3.902257        -1.173405         3.137211
 O        -4.247921        -1.983171         0.775088
 H         2.159895         1.394374        -1.162281
 H         1.849313         1.825264         0.707980
 H         2.575066         0.294848         0.237423
 H        -1.974556        -1.592576        -0.673949
 H        -2.568287         1.337916        -0.532257
 H        -2.103624         0.428321        -1.966794
 H        -3.603364        -0.017203        -1.219060
 H        -3.341634        -2.079339         3.489908
 H        -3.257538        -0.376340         3.572579
 H        -4.982908        -1.235160         3.402324
