19
Iteration:   924
 C         1.982827         0.763229        -0.237609
 C         0.597516         0.393932        -0.095202
 C        -0.555570         0.030949         0.139892
 C        -1.922719        -0.544222         0.066273
 C        -2.859780         0.259126        -0.878696
 O        -2.489968        -0.603862         1.319950
 C        -3.592858        -1.359772         1.505114
 C        -3.962006        -1.113561         2.950561
 O        -4.140387        -1.939309         0.623635
 H         2.189331         1.765048         0.372437
 H         2.527103        -0.024575         0.205235
 H         2.369369         0.893658        -1.268408
 H        -1.943941        -1.580360        -0.219727
 H        -2.959681         1.282514        -0.546303
 H        -2.486984         0.391901        -1.918451
 H        -3.774151        -0.308610        -1.013183
 H        -4.492865        -0.144709         3.175867
 H        -4.692249        -1.816327         3.432902
 H        -3.003717        -1.268056         3.594570
