19
Iteration:  1439
 C         1.758074        -0.135650         0.095258
 C         0.361485        -0.099111        -0.029304
 C        -0.847927         0.039411        -0.006324
 C        -2.285354        -0.027054        -0.191481
 C        -2.748062         1.013686        -1.323753
 O        -3.117594        -0.101301         1.033739
 C        -3.242049        -1.295664         1.658263
 C        -3.930655        -1.090258         3.011925
 O        -2.999401        -2.416879         1.170722
 H         2.247810         0.830382         0.041832
 H         2.000070        -0.441228         1.093712
 H         2.351376        -0.947372        -0.613736
 H        -2.560174        -1.004387        -0.732988
 H        -2.435372         2.034300        -1.279076
 H        -2.288983         0.716033        -2.400913
 H        -3.792266         0.991003        -1.497426
 H        -3.478709        -1.699619         3.776048
 H        -4.053004        -0.035266         3.181864
 H        -4.996714        -1.360244         2.913849
