19
Iteration:  2061
 C         1.850392        -0.340882         0.212503
 C         0.461341        -0.082885        -0.138690
 C        -0.760389        -0.105788        -0.103792
 C        -2.190751        -0.120256        -0.211001
 C        -2.752712         0.962894        -1.255709
 O        -2.971463        -0.105039         0.965166
 C        -3.358363        -1.223275         1.629203
 C        -3.989054        -0.807469         2.989643
 O        -3.302264        -2.353558         1.254020
 H         2.462507         0.556641        -0.176088
 H         1.945561        -0.513708         1.309990
 H         2.262848        -1.113372        -0.394001
 H        -2.458896        -1.041963        -0.636923
 H        -2.964689         2.033263        -0.804594
 H        -2.039395         1.152020        -1.987232
 H        -3.721418         0.782258        -1.694562
 H        -4.301906        -1.790042         3.292631
 H        -3.137661        -0.316600         3.406595
 H        -4.888103        -0.144782         3.034987
