19
Iteration:  2076
 C         1.929771        -0.329915         0.213218
 C         0.478106        -0.263156        -0.069282
 C        -0.748827        -0.053142        -0.092534
 C        -2.240666        -0.106098        -0.411267
 C        -2.861882         1.043237        -1.203963
 O        -2.990336        -0.040607         0.937271
 C        -3.354008        -1.198193         1.639703
 C        -3.985515        -0.856257         2.962321
 O        -3.235112        -2.339983         1.310521
 H         2.418292         0.566607         0.146907
 H         2.039000        -0.640405         1.240587
 H         2.494237        -1.203622        -0.359807
 H        -2.476093        -1.127913        -0.855368
 H        -2.985610         1.890970        -0.585147
 H        -2.201772         1.144770        -2.134001
 H        -3.850263         0.643368        -1.484989
 H        -4.076244        -1.759935         3.607388
 H        -3.518159        -0.143887         3.689318
 H        -4.932733        -0.457950         2.632331
