19
Iteration:  3423charge 0 multiplicity 1
 C         1.931073        -0.601779        -0.079438
 C         0.447802        -0.532083         0.044519
 C        -0.765832        -0.247573         0.062475
 C        -2.238123        -0.179171        -0.173636
 C        -2.525774         0.821684        -1.311715
 O        -3.012995         0.129479         1.013557
 C        -3.529077        -0.963077         1.624540
 C        -4.140917        -0.531389         2.902102
 O        -3.243273        -2.145918         1.304399
 H         2.310539        -1.462458        -0.489390
 H         2.104935         0.210527        -0.712525
 H         2.390657        -0.682347         0.884214
 H        -2.379905        -1.235006        -0.459479
 H        -3.608733         0.816073        -1.757723
 H        -2.286272         1.819788        -0.904791
 H        -1.821773         0.520036        -2.061299
 H        -4.968657         0.176113         2.856415
 H        -4.501951        -1.359727         3.552042
 H        -3.388210        -0.072350         3.510781
