19
Iteration:  3776
 C         1.879072         0.235971        -0.554082
 C         0.710569        -0.317323        -0.118381
 C        -0.431404        -0.643745         0.193450
 C        -1.952992        -0.797504         0.000902
 C        -2.246100         0.487488        -0.895711
 O        -2.423491        -0.737911         1.388239
 C        -3.775372        -0.845446         1.651331
 C        -4.229122        -0.548929         3.068850
 O        -4.472604        -1.217950         0.755113
 H         2.042994        -0.196984        -1.635724
 H         1.734736         1.334075        -0.730284
 H         2.938426         0.050769        -0.128051
 H        -2.154074        -1.792644        -0.359831
 H        -3.222820         0.683969        -1.083040
 H        -1.750290         1.362316        -0.432101
 H        -1.767139         0.164461        -1.825939
 H        -5.312066        -0.568462         2.948686
 H        -3.882322        -1.350736         3.767823
 H        -3.861525         0.419024         3.361393
