19
Iteration:  3803
 C         1.992526         0.116243        -0.578553
 C         0.776175        -0.330110        -0.059057
 C        -0.395389        -0.671279         0.092853
 C        -1.898400        -0.645323         0.062554
 C        -2.422570         0.569826        -0.701278
 O        -2.407102        -0.578033         1.383822
 C        -3.807280        -0.924474         1.568669
 C        -4.137833        -0.464223         2.958242
 O        -4.555184        -1.433759         0.724275
 H         2.173293        -0.401880        -1.489655
 H         2.072389         1.172181        -0.780923
 H         2.869390        -0.133465        -0.095115
 H        -2.199969        -1.662000        -0.259396
 H        -3.521026         0.084272        -0.829933
 H        -2.642631         1.479279        -0.154808
 H        -2.029377         0.630552        -1.718131
 H        -5.238628        -0.592997         3.008771
 H        -3.689922        -1.136618         3.693345
 H        -3.795075         0.599249         3.103307
