19
Iteration:  1100charge 0 multiplicity 1
 C         1.818779         0.207085         0.280709
 C         0.382901         0.067412        -0.062696
 C        -0.830276        -0.166784        -0.054418
 C        -2.320525        -0.264957        -0.260260
 C        -2.951862         0.913070        -1.184098
 O        -2.905297        -0.166959         1.057513
 C        -3.272343        -1.351570         1.573485
 C        -3.786508        -1.074867         2.998844
 O        -3.169981        -2.358737         0.964125
 H         2.128847        -0.650325         1.045098
 H         2.400097         0.148237        -0.548354
 H         1.964794         1.154640         0.763554
 H        -2.636634        -1.174155        -0.716215
 H        -2.362964         1.844450        -1.260342
 H        -2.955945         0.542157        -2.127505
 H        -3.945887         1.279732        -0.859715
 H        -3.608653        -1.888976         3.752052
 H        -3.489467        -0.122266         3.473273
 H        -4.860306        -1.025308         2.946006
