19
Iteration:  2467
 C         1.789276        -0.443280         0.165409
 C         0.298916        -0.292734         0.187107
 C        -0.911678        -0.132155         0.046812
 C        -2.251144        -0.078884        -0.385642
 C        -2.630950         1.193258        -1.190482
 O        -2.991025        -0.143377         0.875189
 C        -3.408826        -1.209329         1.513455
 C        -3.728854        -0.684658         2.991508
 O        -3.291976        -2.409684         1.208318
 H         2.114664        -1.560139        -0.175217
 H         2.243200         0.163605        -0.590298
 H         2.362100        -0.279384         1.086574
 H        -2.522996        -1.032957        -1.039635
 H        -2.815645         1.975064        -0.501901
 H        -1.861663         1.677383        -1.849717
 H        -3.536848         0.919939        -1.803158
 H        -4.507586        -1.208308         3.547673
 H        -2.742630        -0.714853         3.504443
 H        -4.190574         0.330164         2.870859
