19
Iteration:   253
 C         1.520093         0.094975         0.466066
 C         0.175894         0.061880        -0.086810
 C        -1.021159        -0.150583        -0.133572
 C        -2.401791        -0.144594        -0.511727
 C        -3.076006         1.163057        -0.927876
 O        -3.260600        -0.326280         0.739391
 C        -3.007835        -1.386883         1.580923
 C        -3.786645        -1.202352         2.853796
 O        -2.273834        -2.271457         1.270697
 H         2.454727         0.128357        -0.290870
 H         1.740984         0.819267         1.241618
 H         1.694444        -0.803679         0.850372
 H        -2.564154        -0.992953        -1.228042
 H        -2.762535         1.907208        -0.322914
 H        -2.886465         1.473603        -1.929838
 H        -4.093045         1.043698        -0.934544
 H        -4.265421        -2.071131         3.304152
 H        -3.116565        -1.075514         3.695324
 H        -4.555217        -0.441604         2.870854
