19
Iteration:  1675charge 0 multiplicity 1
 C         2.027007         0.462303        -0.212223
 C         0.598921         0.211016        -0.191103
 C        -0.522641        -0.120074         0.059557
 C        -1.869272        -0.532573         0.045537
 C        -2.692730         0.198726        -1.015515
 O        -2.521374        -0.427918         1.371964
 C        -3.638680        -1.178028         1.565820
 C        -3.979492        -1.130297         3.051632
 O        -4.338616        -1.595939         0.707910
 H         2.571727        -0.079655         0.644565
 H         2.344824        -0.083021        -1.186351
 H         2.295416         1.440709        -0.344408
 H        -1.914075        -1.537738        -0.316602
 H        -2.785291         1.248674        -0.698886
 H        -2.109708        -0.041546        -1.996274
 H        -3.652055        -0.273282        -1.019547
 H        -5.011028        -0.807091         3.195229
 H        -3.829593        -2.172021         3.379166
 H        -3.341591        -0.568047         3.741920
