19
Iteration:  3362charge 0 multiplicity 1
 C         1.749137        -0.954799        -0.027444
 C         0.426881        -0.372004        -0.019753
 C        -0.797768        -0.209893        -0.080761
 C        -2.250965        -0.114699        -0.246661
 C        -2.647833         0.913807        -1.204991
 O        -3.078176         0.209994         1.044577
 C        -3.330561        -0.968323         1.639639
 C        -4.447695        -0.698085         2.653809
 O        -2.682282        -2.010688         1.573677
 H         1.573205        -2.075373        -0.248700
 H         2.553430        -0.555540        -0.705975
 H         2.233982        -0.591331         0.865647
 H        -2.486857        -1.199159        -0.258607
 H        -3.717536         1.049233        -1.271107
 H        -2.238292         1.828498        -0.932494
 H        -2.256222         0.709518        -2.199571
 H        -5.016306         0.160723         2.239621
 H        -5.053769        -1.601094         2.822814
 H        -3.915840        -0.386452         3.570203
