19
Iteration:  2624charge 0 multiplicity 1
 C         1.971261        -0.157299         0.223421
 C         0.607632        -0.147120        -0.125483
 C        -0.594202        -0.206560        -0.288045
 C        -2.078541        -0.333191        -0.297099
 C        -2.835114         0.793518        -0.982640
 O        -2.524881        -0.279058         1.129304
 C        -3.552876        -1.146838         1.636493
 C        -4.008244        -0.605650         2.913333
 O        -3.941242        -2.133436         1.015187
 H         2.785583        -0.073141        -0.534567
 H         2.195741         0.667321         0.946140
 H         2.029787        -1.135626         0.783585
 H        -2.461222        -1.304757        -0.681107
 H        -2.480025         1.724367        -0.390125
 H        -2.644598         0.659091        -2.003373
 H        -3.874850         0.753279        -0.773314
 H        -3.283602         0.060500         3.411884
 H        -4.891022        -0.010439         2.715962
 H        -4.135469        -1.450100         3.563947
