19
Iteration:   853charge 0 multiplicity 1
 C         1.836233         1.047144        -0.236609
 C         0.581713         0.356941        -0.062379
 C        -0.436207        -0.308901        -0.017323
 C        -1.827910        -0.612774         0.014951
 C        -2.743329         0.290426        -0.866745
 O        -2.351393        -0.678911         1.386458
 C        -3.597564        -1.308898         1.546146
 C        -4.046218        -1.176677         2.960914
 O        -4.286721        -1.779413         0.668504
 H         1.625726         2.027746        -0.442444
 H         2.391645         0.940198         0.758842
 H         2.441802         0.534243        -1.076602
 H        -1.929052        -1.707580        -0.359111
 H        -2.539775         1.406882        -0.805745
 H        -2.617164         0.041289        -1.945232
 H        -3.795476        -0.078728        -0.742250
 H        -3.564173        -0.511049         3.647754
 H        -5.104599        -0.935444         3.033415
 H        -3.998595        -2.176806         3.305587
