19
Iteration:  2203charge 0 multiplicity 1
 C         1.641063        -0.577674         0.282515
 C         0.198961        -0.485885         0.013232
 C        -0.998185        -0.321811        -0.105931
 C        -2.368633        -0.078873        -0.376801
 C        -2.681490         1.343234        -1.142067
 O        -3.267502        -0.026279         0.736632
 C        -3.122264        -1.097666         1.657098
 C        -4.000868        -0.886754         2.924493
 O        -2.521617        -2.146029         1.344487
 H         1.854735         0.130445         1.202946
 H         1.930127        -1.612016         0.529602
 H         2.205346        -0.181298        -0.497414
 H        -2.604310        -0.864180        -1.116564
 H        -2.374858         2.250472        -0.472977
 H        -2.199518         1.322843        -2.135565
 H        -3.754969         1.369933        -1.183517
 H        -3.681013        -0.059799         3.607697
 H        -5.022661        -0.913839         2.510424
 H        -3.833503        -1.762539         3.544111
