19
Iteration:  3939
 C         1.976119        -0.681244        -0.009708
 C         0.500295        -0.520416        -0.027647
 C        -0.695725        -0.184743        -0.119332
 C        -2.126047        -0.080793        -0.253597
 C        -2.784386         1.020281        -1.093839
 O        -2.690136         0.003919         1.186436
 C        -3.475444        -1.026144         1.659312
 C        -3.835483        -0.830332         3.141563
 O        -3.842579        -1.942159         0.892211
 H         2.067808        -1.371279        -0.808672
 H         2.365894         0.256603        -0.333878
 H         2.406679        -1.081063         0.922767
 H        -2.542126        -1.057281        -0.739720
 H        -3.854236         0.852140        -1.142930
 H        -2.664123         2.166932        -0.773241
 H        -2.298456         0.975208        -2.144459
 H        -3.722998        -1.731754         3.745741
 H        -3.166298        -0.090855         3.556421
 H        -4.883597        -0.595120         3.219108
