19
Iteration:  1768charge 0 multiplicity 1
 C         1.929212         0.732306        -0.268826
 C         0.724610        -0.141242        -0.128771
 C        -0.489861        -0.370749         0.124290
 C        -1.916169        -0.644932        -0.029286
 C        -2.582475         0.226952        -0.969168
 O        -2.458169        -0.461743         1.318713
 C        -3.722408        -1.041082         1.547139
 C        -3.966724        -0.993281         3.089125
 O        -4.398472        -1.583919         0.686913
 H         2.701260         0.069895        -0.408424
 H         1.954381         1.345079        -1.133807
 H         2.020173         1.423063         0.720436
 H        -2.204397        -1.724504        -0.209818
 H        -2.612167         1.330951        -0.753608
 H        -2.235574         0.071033        -1.909358
 H        -3.658992        -0.123534        -1.044394
 H        -4.056082        -2.022318         3.417148
 H        -3.097887        -0.537167         3.608421
 H        -4.927666        -0.654177         3.566296
