19
Iteration:  1601
 C         1.960471         0.365200        -0.020117
 C         0.498718         0.094533        -0.177913
 C        -0.706023        -0.056685        -0.090237
 C        -2.105445        -0.514849        -0.059395
 C        -2.848995         0.533247        -0.888526
 O        -2.440386        -0.485662         1.286310
 C        -3.517676        -1.213141         1.535885
 C        -3.952838        -0.814713         2.934459
 O        -3.932022        -2.040738         0.781262
 H         2.100985         0.524084         1.000318
 H         2.539206        -0.623577        -0.172080
 H         2.399501         1.205189        -0.680609
 H        -2.237115        -1.563385        -0.501805
 H        -2.681480         1.438862        -0.391037
 H        -2.292913         0.505378        -1.911405
 H        -3.833676         0.243671        -0.983988
 H        -3.795890         0.265153         3.218398
 H        -4.962128        -1.283739         3.157750
 H        -3.318552        -1.357332         3.687292
