19
Iteration:  3400charge 0 multiplicity 1
 C         1.824206        -0.730212        -0.119769
 C         0.399739        -0.508086         0.057614
 C        -0.757192        -0.216743         0.090689
 C        -2.151492        -0.126968        -0.215295
 C        -2.548155         0.865303        -1.394208
 O        -3.007459         0.216813         1.002315
 C        -3.332718        -0.946109         1.747261
 C        -4.307234        -0.674781         2.905941
 O        -3.095502        -2.078284         1.367844
 H         2.152989        -1.684403        -0.331624
 H         2.197094        -0.000214        -0.812267
 H         2.149010        -0.756922         0.897974
 H        -2.450105        -1.113815        -0.634042
 H        -3.615837         0.621168        -1.607641
 H        -2.431500         1.990599        -1.239359
 H        -1.990675         0.458963        -2.247457
 H        -5.117934        -0.065376         2.539545
 H        -4.796085        -1.645553         3.093418
 H        -4.060223        -0.291890         3.890705
