19
Iteration:   577
 C         1.767812         0.510834         0.094838
 C         0.340251         0.307361         0.030321
 C        -0.799243        -0.075425         0.080632
 C        -2.239014        -0.294202        -0.271494
 C        -2.855095         0.842175        -1.168346
 O        -2.842188        -0.312602         1.002543
 C        -3.361767        -1.461839         1.564889
 C        -3.759733        -1.127773         3.059164
 O        -3.332769        -2.516201         1.010583
 H         2.104297        -0.384965         0.488079
 H         2.236654         0.535502        -0.974269
 H         2.090930         1.409226         0.801716
 H        -2.387651        -1.255132        -0.826099
 H        -2.455193         1.784486        -0.845897
 H        -2.492521         0.679190        -2.261721
 H        -3.946312         0.838982        -1.245952
 H        -4.267187        -0.216681         3.130555
 H        -4.400764        -1.782183         3.532339
 H        -2.898222        -1.118663         3.631231
