19
Iteration:  1814charge 0 multiplicity 1
 C         1.969171         0.480229        -0.056038
 C         0.527212         0.296514        -0.146861
 C        -0.493538        -0.438566        -0.186177
 C        -1.936215        -0.703252        -0.162023
 C        -2.763836         0.281597        -0.931566
 O        -2.283946        -0.646836         1.309731
 C        -3.575707        -1.051264         1.646530
 C        -4.168510        -0.837268         3.057189
 O        -4.214421        -1.609331         0.797581
 H         2.530797        -0.290285        -0.672408
 H         2.146460         1.413843        -0.512625
 H         2.325396         0.671041         1.034542
 H        -2.087893        -1.807961        -0.389844
 H        -2.656669         1.380284        -0.609155
 H        -2.457485         0.324019        -1.938124
 H        -3.788647         0.059888        -1.036743
 H        -3.493005        -1.221262         3.823784
 H        -4.218032         0.237142         3.157794
 H        -5.128646        -1.345383         3.090942
