19
Iteration:  1094charge 0 multiplicity 1
 C         1.773746         0.231271         0.274161
 C         0.372432         0.057772        -0.024907
 C        -0.828983        -0.125631        -0.051234
 C        -2.301162        -0.239636        -0.247369
 C        -2.923855         0.902538        -1.162440
 O        -2.867350        -0.185107         1.053201
 C        -3.250032        -1.332527         1.587327
 C        -3.777678        -1.061087         2.980510
 O        -3.230733        -2.416068         0.958325
 H         2.116148        -0.495306         0.918874
 H         2.393008         0.057356        -0.766639
 H         2.166686         1.219354         0.713283
 H        -2.595851        -1.195140        -0.770717
 H        -2.273164         1.771915        -1.206485
 H        -3.070294         0.412624        -2.258216
 H        -3.905458         1.310769        -0.934444
 H        -3.820533        -1.901274         3.697392
 H        -3.395533        -0.159289         3.484737
 H        -4.908716        -0.945801         2.982210
