19
Iteration:   999charge 0 multiplicity 1
 C         1.880071         0.561795        -0.012881
 C         0.512473         0.159578        -0.183929
 C        -0.674925        -0.049567        -0.073134
 C        -2.027556        -0.397910        -0.085478
 C        -2.795530         0.564135        -1.051702
 O        -2.667385        -0.285049         1.283270
 C        -3.557706        -1.312362         1.612019
 C        -3.976170        -1.203214         3.015715
 O        -3.687175        -2.225686         0.821346
 H         1.968240         0.807441         1.074102
 H         2.493441        -0.203205        -0.341238
 H         2.187412         1.519968        -0.651504
 H        -2.158593        -1.475862        -0.441261
 H        -3.086471         1.452144        -0.440350
 H        -2.125614         0.968466        -1.892952
 H        -3.634740         0.172374        -1.662822
 H        -5.060012        -1.119884         3.080126
 H        -3.601978        -1.929069         3.718736
 H        -3.733681        -0.239046         3.553403
