19
Iteration:  2133charge 0 multiplicity 1
 C         1.644506        -0.442780         0.288625
 C         0.253852        -0.234480         0.039103
 C        -0.917527        -0.345603        -0.146507
 C        -2.406885        -0.168729        -0.355670
 C        -2.774991         1.111286        -1.202191
 O        -2.853870         0.082306         1.072389
 C        -3.090616        -1.176380         1.657450
 C        -4.092629        -0.825954         2.800603
 O        -2.815126        -2.251335         1.180689
 H         2.027796         0.525656         0.572997
 H         1.780766        -1.180463         1.098764
 H         2.150590        -0.672954        -0.666832
 H        -3.039700        -1.107679        -0.565927
 H        -2.291144         1.979302        -0.841465
 H        -2.570999         0.995522        -2.280621
 H        -3.885557         1.357629        -1.039254
 H        -3.611897        -1.102776         3.714204
 H        -4.458082         0.185580         2.568612
 H        -4.859099        -1.623375         2.737859
