19
Iteration:  4112
 C         1.152137        -1.331317         0.639301
 C         0.085912        -0.566756        -0.146291
 C        -1.107694        -0.314944        -0.364537
 C        -2.538240         0.124778        -0.562493
 C        -2.623568         1.535966        -1.015803
 O        -3.127158         0.102326         0.857954
 C        -2.999808        -0.994941         1.621258
 C        -3.407627        -0.749292         3.106968
 O        -2.620512        -2.047122         1.056247
 H         1.110883        -2.389759         0.354047
 H         2.159231        -0.888499         0.360125
 H         1.070956        -1.179201         1.794138
 H        -2.923023        -0.699874        -1.180932
 H        -3.548049         1.864389        -1.397928
 H        -2.151610         2.134932        -0.176551
 H        -1.915781         1.674158        -1.812311
 H        -3.488709         0.325166         3.326394
 H        -4.411595        -1.206626         3.225763
 H        -2.760226        -1.289138         3.837346
