19
Iteration:  3522charge 0 multiplicity 1
 C         1.806834        -0.114070         0.320042
 C         0.542368        -0.449355        -0.186178
 C        -0.674893        -0.631727        -0.251851
 C        -2.172231        -0.479748        -0.379895
 C        -2.641987         0.740668        -1.179178
 O        -2.519171        -0.204583         1.017496
 C        -3.421407        -0.943417         1.673269
 C        -3.721717        -0.474013         3.046549
 O        -4.128250        -1.853729         1.171013
 H         2.646701        -0.533297        -0.180437
 H         1.809635         1.017572         0.171344
 H         1.841509        -0.220264         1.426621
 H        -2.604207        -1.488818        -0.617278
 H        -3.821410         0.867854        -1.061010
 H        -2.282230         1.685045        -0.943040
 H        -2.321420         0.474674        -2.182137
 H        -4.622808         0.170419         2.961999
 H        -4.032926        -1.293808         3.658925
 H        -2.961959         0.125304         3.548878
