19
Iteration:  3997charge 0 multiplicity 1
 C         1.614117        -0.743676         0.204646
 C         0.259876        -0.473055        -0.076201
 C        -0.956279        -0.456118        -0.112775
 C        -2.289779        -0.125228        -0.329307
 C        -2.413855         1.300180        -1.120026
 O        -3.006202         0.160327         1.003161
 C        -3.337297        -1.053982         1.640673
 C        -3.441659        -0.829133         3.162137
 O        -3.530338        -2.094044         0.958422
 H         1.987960        -1.736683        -0.291802
 H         2.423797         0.009682         0.072262
 H         1.640441        -0.980712         1.279667
 H        -2.911678        -0.604441        -1.148298
 H        -3.503998         1.304065        -1.439374
 H        -2.171985         2.088097        -0.430166
 H        -1.832707         1.417563        -2.014900
 H        -2.476686        -1.170068         3.515435
 H        -3.620451         0.246192         3.331393
 H        -4.285400        -1.397019         3.622469
