19
Iteration:  4244charge 0 multiplicity 1
 C         1.387519        -1.427883         0.072805
 C         0.222664        -0.557161        -0.090522
 C        -0.866172        -0.080307        -0.202866
 C        -2.375045         0.131337        -0.341384
 C        -2.641910         1.422505        -1.123804
 O        -3.025723         0.193251         0.998259
 C        -3.119372        -0.982180         1.686118
 C        -3.942306        -0.777767         2.905280
 O        -2.720284        -2.075988         1.398438
 H         1.164589        -2.474307         0.307314
 H         1.934991        -1.385847        -0.906008
 H         2.217182        -1.170938         0.858901
 H        -2.896360        -0.797642        -0.823769
 H        -3.565127         1.899901        -0.891985
 H        -1.931978         2.200839        -0.819458
 H        -2.473920         1.118708        -2.103525
 H        -4.991665        -0.892208         2.603630
 H        -3.775123        -1.657003         3.539186
 H        -3.809360         0.220455         3.349011
