19
Iteration:  3217charge 0 multiplicity 1
 C         1.573436        -0.834488         0.410657
 C         0.119141        -0.693570         0.056889
 C        -1.074502        -0.507075        -0.198877
 C        -2.472056        -0.102739        -0.593979
 C        -2.304871         1.407974        -1.114705
 O        -3.511758        -0.128796         0.625348
 C        -3.189310        -0.926071         1.609108
 C        -4.069415        -0.823075         2.841319
 O        -2.252083        -1.749870         1.661747
 H         1.840469        -1.751572         1.009499
 H         1.987100        -1.047226        -0.570172
 H         2.100952         0.066637         0.784634
 H        -2.919095        -0.755009        -1.402235
 H        -3.248272         2.002297        -1.128717
 H        -1.730907         2.032460        -0.487390
 H        -1.946304         1.289093        -2.069789
 H        -4.261299         0.154539         3.294988
 H        -5.138816        -1.068279         2.595241
 H        -3.538996        -1.451963         3.578369
