19
Iteration:  1589
 C         1.891680         0.304573         0.021177
 C         0.491193         0.187432        -0.196160
 C        -0.675591        -0.153189        -0.147046
 C        -2.026355        -0.473650        -0.190387
 C        -2.775014         0.606001        -0.866350
 O        -2.468192        -0.456823         1.275067
 C        -3.567087        -1.204495         1.593947
 C        -3.975178        -0.839209         2.977222
 O        -3.916944        -2.161999         0.842370
 H         2.042223         0.787671         0.991685
 H         2.554239        -0.652195        -0.126353
 H         2.350215         1.087473        -0.617293
 H        -2.250544        -1.483764        -0.614186
 H        -2.664773         1.565908        -0.443778
 H        -2.450341         0.691714        -1.974516
 H        -3.824643         0.511238        -0.931611
 H        -3.709672         0.259282         3.037286
 H        -5.063143        -0.876662         3.206848
 H        -3.285812        -1.472929         3.600756
