19
Iteration:  3753charge 0 multiplicity 1
 C         1.882748         0.319975        -0.546836
 C         0.683989        -0.265191        -0.215797
 C        -0.376193        -0.788231         0.100483
 C        -1.908754        -0.786120         0.091476
 C        -2.242595         0.299518        -0.904118
 O        -2.425484        -0.659264         1.542442
 C        -3.807591        -0.827751         1.627775
 C        -4.179086        -0.654898         3.050678
 O        -4.557601        -1.058234         0.651420
 H         2.330898         0.063725        -1.552394
 H         1.696413         1.434920        -0.461179
 H         2.739398         0.096749         0.183077
 H        -2.295952        -1.763932        -0.171958
 H        -3.210876         0.594774        -1.020489
 H        -1.670302         1.199089        -0.732535
 H        -1.898727        -0.203310        -1.825532
 H        -5.233223        -0.553909         3.246640
 H        -3.835503        -1.490376         3.688963
 H        -3.641556         0.200065         3.426992
