19
Iteration:  3550charge 0 multiplicity 1
 C         1.818361        -0.089848         0.382797
 C         0.488954        -0.316288        -0.136867
 C        -0.664677        -0.685826        -0.409190
 C        -2.180431        -0.626816        -0.287722
 C        -2.772907         0.486549        -1.098057
 O        -2.415281        -0.189030         1.138732
 C        -3.524151        -0.861151         1.621795
 C        -3.652206        -0.520764         3.073237
 O        -4.112117        -1.608068         0.930198
 H         2.583928        -0.486767        -0.357009
 H         2.017741         1.007479         0.325132
 H         2.018748        -0.240775         1.433008
 H        -2.742764        -1.586708        -0.385075
 H        -3.793707         0.546613        -0.960970
 H        -2.473504         1.603780        -0.920684
 H        -2.421454         0.231387        -2.119156
 H        -4.430418         0.190844         3.366835
 H        -3.850780        -1.446239         3.689484
 H        -2.730900        -0.033512         3.380270
