19
Iteration:  3501
 C         1.930931        -0.115376         0.240921
 C         0.476597        -0.525546        -0.061338
 C        -0.688789        -0.480137        -0.406553
 C        -2.179128        -0.412996        -0.378897
 C        -2.511521         0.792510        -1.280117
 O        -2.658751        -0.199139         1.054324
 C        -3.529386        -1.005889         1.710242
 C        -3.785445        -0.394183         3.090376
 O        -4.050101        -2.067737         1.240076
 H         2.597352        -0.735620        -0.254397
 H         2.192869         0.919567         0.147331
 H         2.029434        -0.261801         1.314782
 H        -2.772294        -1.325770        -0.694463
 H        -3.620578         1.170225        -1.141678
 H        -2.091626         1.646067        -0.843804
 H        -2.038126         0.748111        -2.258360
 H        -4.643268         0.315422         3.075031
 H        -4.040692        -1.088190         3.865979
 H        -2.942867         0.224373         3.419357
