19
Iteration:  2122charge 0 multiplicity 1
 C         1.708835        -0.392156         0.270664
 C         0.243241        -0.281932         0.107254
 C        -0.952011        -0.307660        -0.187378
 C        -2.331820        -0.128516        -0.322639
 C        -2.855367         1.064410        -1.131568
 O        -2.851926         0.049660         1.049555
 C        -3.182452        -1.157858         1.609358
 C        -4.039698        -0.832441         2.740452
 O        -2.858281        -2.266479         1.192475
 H         2.237944         0.527963         0.470093
 H         2.059449        -1.103670         1.038828
 H         2.110893        -0.856953        -0.650102
 H        -2.643378        -1.154933        -0.764350
 H        -2.353853         1.857833        -0.666027
 H        -2.494232         0.988115        -2.185070
 H        -3.993224         1.161114        -1.080740
 H        -3.558946        -0.949992         3.691986
 H        -4.093986         0.268952         2.839808
 H        -5.076128        -1.177343         2.722904
