19
Iteration:  3300
 C         1.660781        -0.955086         0.127441
 C         0.227609        -0.641271         0.024954
 C        -0.875238        -0.244079        -0.355826
 C        -2.273833         0.004397        -0.422168
 C        -2.671016         1.292155        -1.125778
 O        -3.100369        -0.066438         0.790725
 C        -3.186032        -1.007078         1.674493
 C        -4.404330        -0.758288         2.636588
 O        -2.471623        -1.914867         1.920542
 H         1.821515        -1.975489         0.432239
 H         2.337874        -0.705562        -0.745986
 H         1.979455        -0.384237         1.075649
 H        -2.771753        -0.678256        -1.174776
 H        -3.684940         1.235254        -1.550009
 H        -2.269864         2.266320        -0.475433
 H        -1.874167         1.384140        -2.041305
 H        -4.885265         0.195285         2.394255
 H        -5.116861        -1.557892         2.593896
 H        -4.191456        -0.702657         3.733518
