19
Iteration:   569
 C         1.730874         0.507750         0.085250
 C         0.337924         0.295389         0.001390
 C        -0.814545        -0.120139         0.081688
 C        -2.225032        -0.343882        -0.289874
 C        -2.815632         0.839069        -1.156099
 O        -2.934746        -0.231403         1.029777
 C        -3.326931        -1.427682         1.589024
 C        -3.758129        -1.144874         3.012412
 O        -3.302643        -2.547014         1.011572
 H         2.169621        -0.305534         0.639615
 H         2.273718         0.564720        -0.846932
 H         2.157135         1.457685         0.681933
 H        -2.367601        -1.311272        -0.701249
 H        -2.388997         1.793403        -0.750874
 H        -2.485033         0.887504        -2.187479
 H        -3.890484         0.854247        -1.088422
 H        -4.030396        -0.085419         3.104545
 H        -4.469737        -1.885299         3.327164
 H        -2.814047        -1.142051         3.592695
