19
Iteration:  1927
 C         1.901902         0.195459         0.111205
 C         0.498378         0.111923        -0.120213
 C        -0.616473        -0.350458        -0.223486
 C        -2.049245        -0.453671        -0.210304
 C        -2.699292         0.590344        -1.160511
 O        -2.561912        -0.282937         1.201694
 C        -3.560378        -1.168805         1.661455
 C        -4.012118        -0.768982         3.071592
 O        -3.916258        -2.055400         0.961209
 H         2.560328         0.321134        -0.923387
 H         2.286646         1.065771         0.772764
 H         2.225301        -0.701858         0.513573
 H        -2.333687        -1.502685        -0.393960
 H        -2.472653         1.526992        -0.741532
 H        -2.076655         0.503162        -2.140592
 H        -3.750723         0.212832        -1.282653
 H        -4.464174         0.205834         3.165404
 H        -4.757518        -1.535899         3.371622
 H        -3.223566        -0.892763         3.812625
