19
Iteration:     7
 C         1.847171         0.877620         0.028887
 C         0.496793         0.401034        -0.014807
 C        -0.672251         0.060585        -0.069702
 C        -2.007176        -0.344422        -0.089678
 C        -2.950837         0.521964        -0.935960
 O        -2.514498        -0.484563         1.260657
 C        -3.442929        -1.491414         1.565286
 C        -3.880635        -1.457272         2.902583
 O        -3.858413        -2.221245         0.704578
 H         2.233000         1.091288         1.094261
 H         2.650213         0.237580        -0.377434
 H         2.009600         1.866703        -0.485012
 H        -2.058249        -1.398564        -0.460702
 H        -3.200267         1.527497        -0.473195
 H        -2.627778         0.778501        -1.951475
 H        -4.040481         0.283901        -1.009961
 H        -4.631997        -2.259836         3.052983
 H        -2.982650        -1.553254         3.556430
 H        -4.163358        -0.451102         3.284729
