19
Iteration:  4580charge 0 multiplicity 1
 C         1.894886        -0.089470        -0.110849
 C         0.534860        -0.618092        -0.380122
 C        -0.590126        -0.996351        -0.248066
 C        -2.028987        -0.588070        -0.166820
 C        -2.362796         0.615129        -0.930767
 O        -2.435938        -0.301532         1.214677
 C        -3.672301        -0.750717         1.700125
 C        -3.587104        -0.805519         3.162000
 O        -4.707070        -0.983973         1.004766
 H         2.124690         0.860047         0.458606
 H         2.348556        -1.065897         0.260869
 H         2.131366         0.173079        -1.143530
 H        -2.620004        -1.422544        -0.577784
 H        -3.460605         0.774316        -0.983153
 H        -1.833192         1.495884        -0.455200
 H        -2.050553         0.629238        -1.906162
 H        -2.560067        -0.996324         3.527004
 H        -3.871605         0.102810         3.707461
 H        -4.309085        -1.509831         3.610362
