19
Iteration:   420charge 0 multiplicity 1
 C         1.627307         0.002972         0.264761
 C         0.213029         0.004932        -0.017319
 C        -0.970089         0.245900        -0.212408
 C        -2.375094        -0.039813        -0.415288
 C        -3.084399         1.107467        -1.148282
 O        -3.060618        -0.237172         0.903335
 C        -3.098140        -1.496010         1.639338
 C        -4.065199        -1.281441         2.884158
 O        -2.334738        -2.425754         1.412746
 H         2.034647         0.822874         1.048177
 H         2.075256        -0.956517         0.573247
 H         2.187984         0.227370        -0.628007
 H        -2.447534        -0.995764        -1.137108
 H        -2.847888         2.189824        -0.813661
 H        -2.809381         0.901228        -2.153707
 H        -4.183248         1.193934        -1.064071
 H        -3.360734        -0.976138         3.707413
 H        -4.753865        -0.413649         2.694570
 H        -4.607510        -2.264097         3.101580
