19
Iteration:  4887charge 0 multiplicity 1
 C         1.888979        -0.734041        -0.463670
 C         0.516724        -0.618313        -0.224782
 C        -0.699217        -0.499211        -0.080609
 C        -2.133545        -0.229578        -0.135190
 C        -2.427550         1.222553        -0.760794
 O        -2.765849        -0.123692         1.119732
 C        -3.574598        -0.996073         1.735843
 C        -3.973050        -0.354159         3.089273
 O        -3.863273        -2.051664         1.122657
 H         2.182716        -0.534260        -1.495468
 H         2.592383        -0.143236         0.151520
 H         2.265478        -1.711013        -0.428823
 H        -2.643250        -0.918714        -0.879787
 H        -3.501894         1.185120        -0.946719
 H        -2.126149         2.044558        -0.106084
 H        -1.991872         1.559507        -1.776396
 H        -4.352410        -1.125366         3.676515
 H        -3.030196         0.099478         3.365604
 H        -4.613678         0.504407         2.970322
