19
Iteration:  2426
 C         1.797927        -0.583022         0.346164
 C         0.329591        -0.285411         0.065591
 C        -0.870844        -0.194289        -0.230527
 C        -2.357219        -0.109529        -0.467030
 C        -2.761064         1.193872        -1.084093
 O        -3.028509        -0.005885         0.865073
 C        -3.255574        -1.161002         1.649521
 C        -3.864033        -0.790341         2.961541
 O        -3.049194        -2.271903         1.183963
 H         1.943257        -1.617406         0.606802
 H         2.444451        -0.227200        -0.465467
 H         2.089724         0.035875         1.293557
 H        -2.725702        -0.963716        -1.046732
 H        -2.331090         2.081206        -0.517084
 H        -2.397169         1.120860        -2.107843
 H        -3.885886         1.191574        -1.025293
 H        -4.855928        -1.234400         2.839250
 H        -3.473223        -1.400371         3.782471
 H        -3.881270         0.274207         3.273850
