19
Iteration:  3396charge 0 multiplicity 1
 C         1.796988        -0.754354        -0.106216
 C         0.405594        -0.481473         0.049193
 C        -0.768479        -0.230539         0.083250
 C        -2.172285        -0.094495        -0.227042
 C        -2.566885         0.871739        -1.376664
 O        -2.990543         0.199075         0.998885
 C        -3.315763        -0.944284         1.725817
 C        -4.336302        -0.685940         2.895335
 O        -3.056851        -2.048854         1.386766
 H         2.147524        -1.862930        -0.380003
 H         2.181745         0.003150        -0.887515
 H         2.151993        -0.754557         0.957754
 H        -2.279065        -1.194516        -0.523777
 H        -3.546588         0.621687        -1.620665
 H        -2.365645         1.936610        -1.208589
 H        -2.018726         0.423592        -2.250898
 H        -5.183296        -0.053353         2.565064
 H        -4.770643        -1.661590         3.041594
 H        -4.158260        -0.348609         3.950687
