19
Iteration:   158charge 0 multiplicity 1
 C         1.666739         0.372857         0.324502
 C         0.246273         0.161796         0.065153
 C        -0.941391        -0.079922        -0.043795
 C        -2.363452        -0.250692        -0.265925
 C        -2.972471         0.919414        -1.112145
 O        -3.143925        -0.214162         0.959158
 C        -3.196465        -1.428764         1.547642
 C        -3.634285        -1.312910         3.024040
 O        -2.781965        -2.334838         0.876694
 H         2.209081        -0.407555         0.031123
 H         2.068467         1.271471        -0.139362
 H         1.831828         0.472308         1.490189
 H        -2.588972        -1.184132        -0.772774
 H        -2.591784         1.947694        -0.755737
 H        -2.500606         0.876247        -2.219228
 H        -4.073567         0.856046        -1.385205
 H        -4.521769        -1.912565         3.335969
 H        -2.846423        -1.788196         3.612274
 H        -3.920791        -0.277532         3.265593
