19
Iteration:  1222charge 0 multiplicity 1
 C         1.605854        -0.317827         0.436346
 C         0.206718        -0.127764         0.040356
 C        -1.004471        -0.014632        -0.041704
 C        -2.398121        -0.060317        -0.474044
 C        -2.984091         1.213986        -1.124913
 O        -3.354163        -0.262124         0.622812
 C        -3.094853        -1.244573         1.620047
 C        -3.682581        -1.072829         2.984869
 O        -2.414838        -2.235393         1.308974
 H         1.944937        -1.286022        -0.257926
 H         2.240287         0.467639         0.069055
 H         1.767308        -0.561232         1.430884
 H        -2.459374        -0.835418        -1.204764
 H        -3.118629         2.126497        -0.618723
 H        -2.311067         1.417596        -2.016955
 H        -3.879192         0.866699        -1.523367
 H        -3.692402        -0.038622         3.396292
 H        -4.750423        -1.284897         3.058161
 H        -3.301551        -1.767305         3.781319
