19
Iteration:  4104
 C         1.188256        -1.223176         0.630085
 C         0.043195        -0.599918        -0.143420
 C        -1.129128        -0.301837        -0.341167
 C        -2.531102         0.070394        -0.491388
 C        -2.545666         1.515204        -0.992062
 O        -3.108102         0.065865         0.801844
 C        -3.025634        -1.034882         1.563138
 C        -3.390643        -0.739121         3.106527
 O        -2.682434        -2.030553         1.064217
 H         1.117433        -2.222219         0.306175
 H         2.196249        -1.016517         0.381020
 H         0.967246        -1.265790         1.682919
 H        -2.964236        -0.544203        -1.225215
 H        -3.612912         1.940141        -1.010254
 H        -2.139531         2.227016        -0.223901
 H        -1.913520         1.569019        -1.870792
 H        -3.320800         0.308794         3.321383
 H        -4.428796        -0.905237         3.352592
 H        -2.652595        -1.229146         3.745072
