19
Iteration:  1742charge 0 multiplicity 1
 C         1.981369         0.696409        -0.354692
 C         0.762029         0.017750         0.073278
 C        -0.397356        -0.420086         0.136436
 C        -1.880007        -0.645446        -0.036385
 C        -2.570828         0.244465        -1.064656
 O        -2.568539        -0.380282         1.291177
 C        -3.670806        -1.112881         1.627681
 C        -3.963114        -1.151685         3.009640
 O        -4.516164        -1.545687         0.806406
 H         2.906802         0.032670        -0.437227
 H         1.750887         0.872559        -1.514619
 H         2.033493         1.662931         0.089392
 H        -2.114252        -1.689126        -0.107936
 H        -2.371638         1.277792        -0.922685
 H        -2.151688         0.159120        -2.219652
 H        -3.621200         0.034310        -1.145634
 H        -4.686482        -1.971117         3.337071
 H        -3.050134        -1.134613         3.648531
 H        -4.589947        -0.304491         3.346653
