19
Iteration:  1931
 C         1.918938         0.193189         0.122748
 C         0.508451         0.101788        -0.168276
 C        -0.658527        -0.360691        -0.173035
 C        -2.089559        -0.426137        -0.180927
 C        -2.682338         0.565342        -1.173287
 O        -2.575945        -0.279880         1.198057
 C        -3.539908        -1.126624         1.655073
 C        -4.005646        -0.783735         3.076062
 O        -3.890101        -2.074436         0.950915
 H         2.429573         0.387963        -0.818809
 H         2.270288         1.017597         0.755034
 H         2.341647        -0.784077         0.560417
 H        -2.438609        -1.402480        -0.534239
 H        -2.413852         1.637717        -0.759322
 H        -2.126728         0.413340        -2.043512
 H        -3.756728         0.310209        -1.332314
 H        -4.558514         0.175037         3.159586
 H        -4.744403        -1.579496         3.309684
 H        -3.066435        -0.806884         3.737436
