19
Iteration:  2271
 C         1.594072        -0.773089         0.234740
 C         0.221795        -0.273662         0.141530
 C        -0.987180        -0.131805         0.025214
 C        -2.396062        -0.031197        -0.472611
 C        -2.679239         1.439040        -1.075627
 O        -3.406781        -0.243473         0.518402
 C        -3.150681        -1.155670         1.529105
 C        -3.829591        -0.821458         2.873282
 O        -2.489216        -2.161234         1.551509
 H         1.942825        -0.956055         1.241162
 H         1.638342        -1.752904        -0.204607
 H         2.437067        -0.169212        -0.238041
 H        -2.552171        -0.906485        -1.116128
 H        -2.894747         2.054022        -0.235210
 H        -1.824112         1.772734        -1.821754
 H        -3.745631         1.437705        -1.499681
 H        -4.042252         0.210556         3.262224
 H        -4.794225        -1.365978         3.027046
 H        -3.194819        -1.216454         3.714780
