19
Iteration:  1924charge 0 multiplicity 1
 C         1.909183         0.217409         0.085178
 C         0.491808         0.117337        -0.082001
 C        -0.586578        -0.336364        -0.258211
 C        -2.024219        -0.482143        -0.228639
 C        -2.706401         0.588820        -1.156796
 O        -2.551671        -0.281137         1.207233
 C        -3.560267        -1.180312         1.666231
 C        -4.019808        -0.771968         3.066723
 O        -3.944826        -2.052544         0.966359
 H         2.521543         0.248991        -0.815373
 H         2.220881         1.010012         0.721000
 H         2.198746        -0.767327         0.553975
 H        -2.272505        -1.571937        -0.344692
 H        -2.571823         1.545589        -0.699858
 H        -2.139795         0.583449        -2.133815
 H        -3.696615         0.243093        -1.256554
 H        -4.384441         0.273835         3.144738
 H        -4.761089        -1.467995         3.404999
 H        -3.318583        -0.932970         3.853697
