19
Iteration:  3536
 C         1.783364        -0.039147         0.339396
 C         0.465813        -0.394585        -0.188429
 C        -0.713807        -0.710042        -0.274390
 C        -2.075628        -0.524878        -0.294401
 C        -2.714038         0.599052        -1.169227
 O        -2.419972        -0.175012         1.090848
 C        -3.483266        -0.857875         1.601838
 C        -3.679443        -0.489361         3.061131
 O        -4.134390        -1.764645         1.048578
 H         2.573883        -0.637773        -0.086954
 H         2.033488         0.956676         0.330399
 H         1.739335        -0.502653         1.308034
 H        -2.634457        -1.444274        -0.585829
 H        -3.827538         0.531098        -0.969510
 H        -2.228056         1.461765        -0.704429
 H        -2.701865         0.633455        -2.313679
 H        -4.563078         0.163892         3.120909
 H        -3.874813        -1.442333         3.572452
 H        -2.746751        -0.022011         3.496439
