19
Iteration:  3096charge 0 multiplicity 1
 C         1.652534        -0.804434         0.375753
 C         0.359800        -0.358161         0.078406
 C        -0.792393        -0.127646        -0.206824
 C        -2.189952        -0.085359        -0.370032
 C        -2.843909         0.938841        -1.333879
 O        -2.869288         0.118450         0.975797
 C        -3.300608        -1.029774         1.644548
 C        -3.966820        -0.693962         2.951231
 O        -3.080596        -2.154237         1.198296
 H         1.761449        -1.027636         1.453882
 H         1.948279        -1.667375        -0.215403
 H         2.365581         0.070782         0.216403
 H        -2.613233        -1.114847        -0.621837
 H        -4.021566         0.951258        -1.435677
 H        -2.563166         1.961588        -1.110509
 H        -2.326885         0.626246        -2.257341
 H        -3.389480         0.034052         3.588003
 H        -4.850406        -0.065817         2.678855
 H        -4.219170        -1.599083         3.567090
