19
Iteration:  3151
 C         1.540052        -0.849463         0.472136
 C         0.227353        -0.508022        -0.039728
 C        -0.928021        -0.279178        -0.258741
 C        -2.305192        -0.049986        -0.464190
 C        -2.695821         1.251319        -1.110189
 O        -3.108069        -0.030173         0.758225
 C        -3.171273        -1.108114         1.667275
 C        -4.081916        -0.552629         2.758762
 O        -2.556135        -2.121444         1.513971
 H         1.447398        -1.511042         1.376220
 H         2.007943        -1.486037        -0.273475
 H         2.304722        -0.005142         0.470161
 H        -2.904965        -0.868760        -1.035278
 H        -3.837685         1.040293        -1.498301
 H        -2.520626         2.170138        -0.532967
 H        -2.067008         1.304648        -1.971031
 H        -3.689731         0.359088         3.277804
 H        -5.127620        -0.328088         2.354094
 H        -4.082064        -1.434982         3.495977
