19
Iteration:  4674
 C         2.018833        -0.302522        -0.127521
 C         0.607595        -0.447479        -0.455796
 C        -0.585884        -0.603764        -0.320619
 C        -2.083606        -0.668927        -0.131438
 C        -2.681974         0.582884        -0.688445
 O        -2.348569        -0.643357         1.234187
 C        -3.606139        -0.795732         1.647633
 C        -3.687434        -0.542933         3.186801
 O        -4.610830        -0.947889         0.857518
 H         2.310032         0.713110         0.073798
 H         2.005265        -0.886634         0.760269
 H         2.764033        -0.676725        -0.890467
 H        -2.348168        -1.637024        -0.643080
 H        -3.724525         0.742289        -0.503074
 H        -2.026001         1.376908        -0.254586
 H        -2.497448         0.560057        -1.878124
 H        -2.653956        -0.719431         3.570429
 H        -4.098997         0.375599         3.654833
 H        -4.278118        -1.371459         3.621898
