19
Iteration:  3578
 C         1.855292        -0.088152         0.319849
 C         0.530206        -0.333709        -0.029795
 C        -0.629576        -0.381940        -0.342895
 C        -2.037134        -0.605600        -0.318629
 C        -2.854798         0.290528        -1.224469
 O        -2.291621        -0.330740         1.171305
 C        -3.465740        -0.840968         1.661941
 C        -3.686352        -0.624421         3.085298
 O        -4.370269        -1.397499         0.944291
 H         2.474258        -0.488846        -0.470590
 H         2.119476         1.017914         0.235712
 H         2.277432        -0.365047         1.324076
 H        -2.455034        -1.669826        -0.519510
 H        -3.984618         0.064725        -0.983010
 H        -2.661669         1.336738        -1.160822
 H        -2.684660         0.024332        -2.300395
 H        -4.487661         0.078679         3.332128
 H        -3.889471        -1.508721         3.674052
 H        -2.767088        -0.152961         3.516205
