19
Iteration:   122
 C         1.708947         0.430541         0.304618
 C         0.353919         0.194645         0.098238
 C        -0.836110         0.184197        -0.133710
 C        -2.284713        -0.101027        -0.228525
 C        -3.056884         0.938109        -1.239379
 O        -2.952779        -0.232539         0.967012
 C        -3.185608        -1.462880         1.552952
 C        -3.694710        -1.433471         2.985809
 O        -3.125375        -2.556109         1.057438
 H         2.219163        -0.578612         0.388552
 H         2.196643         1.026378        -0.489665
 H         1.815470         0.923639         1.203290
 H        -2.275832        -1.064357        -0.774293
 H        -2.699031         1.894608        -1.239434
 H        -2.787199         0.401254        -2.171925
 H        -4.086424         1.027154        -1.044877
 H        -4.557050        -2.076114         2.964289
 H        -2.866726        -1.837693         3.593613
 H        -3.858550        -0.447524         3.416482
