19
Iteration:  4736charge 0 multiplicity 1
 C         2.019222        -0.646220        -0.457754
 C         0.661278        -0.400796        -0.003731
 C        -0.546408        -0.270183        -0.156568
 C        -1.923460        -0.448550        -0.289277
 C        -2.776954         0.604770        -0.921262
 O        -2.385394        -0.498834         1.343859
 C        -3.605157        -0.793241         1.716548
 C        -3.882949        -0.576888         3.151720
 O        -4.486524        -1.222191         0.965833
 H         2.508251         0.360360        -0.731374
 H         2.722205        -0.954794         0.387017
 H         2.152989        -1.338268        -1.305678
 H        -2.203021        -1.465432        -0.626482
 H        -3.744484         0.283857        -1.164547
 H        -2.881626         1.403163        -0.251808
 H        -2.328742         0.985147        -1.837259
 H        -3.020128        -0.945754         3.702047
 H        -3.961524         0.477689         3.483835
 H        -4.753589        -1.216861         3.241265
