19
Iteration:   102charge 0 multiplicity 1
 C         1.789287         0.427707         0.305605
 C         0.297327         0.331213         0.131151
 C        -0.876352         0.248451        -0.165470
 C        -2.225607        -0.197628        -0.423125
 C        -3.053812         0.850281        -1.190965
 O        -2.803885        -0.276584         1.136518
 C        -3.263950        -1.529529         1.560798
 C        -3.731654        -1.363626         3.024062
 O        -3.211827        -2.566622         0.937256
 H         2.259239        -0.436805         0.523170
 H         2.215787         0.756649        -0.661410
 H         2.203315         1.171185         1.086557
 H        -2.346561        -1.207773        -0.830171
 H        -2.711976         1.884752        -0.971554
 H        -2.988733         0.820326        -2.401002
 H        -4.111462         0.909298        -0.846014
 H        -4.639344        -1.952479         3.161914
 H        -3.072383        -1.675991         3.827673
 H        -3.869194        -0.334086         3.341080
