19
Iteration:  3870charge 0 multiplicity 1
 C         2.118397        -0.425051        -0.248983
 C         0.646736        -0.185234        -0.299002
 C        -0.549616        -0.218682        -0.185840
 C        -1.992920        -0.439891        -0.019522
 C        -2.769724         0.764814        -0.851948
 O        -2.301780        -0.449684         1.496055
 C        -3.566523        -0.991369         1.649803
 C        -4.295811        -0.587679         2.939267
 O        -4.199834        -1.665610         0.845826
 H         2.317106        -1.078469        -1.049926
 H         2.799505         0.424737        -0.390854
 H         2.440619        -0.982292         0.612093
 H        -2.486702        -1.265238        -0.538839
 H        -3.912448         0.638375        -0.678038
 H        -2.465723         1.768106        -0.542694
 H        -2.448670         0.510127        -1.927002
 H        -5.141584        -1.275040         3.027588
 H        -3.597688        -0.664237         3.787917
 H        -4.661461         0.432795         2.751929
