19
Iteration:  2316
 C         1.604498        -0.731648         0.397407
 C         0.185467        -0.430041        -0.000584
 C        -1.000471        -0.169010        -0.169421
 C        -2.397766        -0.016999        -0.480807
 C        -2.778766         1.271976        -1.036281
 O        -3.226681        -0.028155         0.798980
 C        -3.063154        -1.151725         1.681632
 C        -4.019087        -0.827220         2.841784
 O        -2.442282        -2.152491         1.284896
 H         1.666678        -1.114658         1.347586
 H         2.075177        -1.458430        -0.235883
 H         2.319203         0.177167         0.352954
 H        -2.711665        -0.857714        -1.062112
 H        -2.465403         2.102176        -0.471935
 H        -2.187804         1.316403        -2.025578
 H        -3.868113         1.582751        -1.236289
 H        -4.642734         0.039839         2.693272
 H        -4.583567        -1.762762         3.050030
 H        -3.346893        -0.817269         3.757067
