19
Iteration:   390
 C         1.618936        -0.141409         0.291449
 C         0.161639         0.082852         0.106478
 C        -1.036603         0.165771        -0.139146
 C        -2.420815        -0.087410        -0.372630
 C        -3.165554         1.076895        -1.189776
 O        -3.152394        -0.096051         0.903253
 C        -2.925834        -1.358120         1.627224
 C        -3.965009        -1.356708         2.770949
 O        -2.239865        -2.349836         1.396905
 H         2.136782         0.694618         0.624980
 H         1.806571        -1.050050         0.949581
 H         1.877570        -0.338039        -0.852747
 H        -2.559845        -0.897197        -1.034952
 H        -2.978172         2.024429        -0.584718
 H        -2.593168         1.242641        -2.116717
 H        -4.158694         0.661762        -1.558697
 H        -3.429933        -1.455920         3.678428
 H        -4.533223        -0.442287         2.802302
 H        -4.559852        -2.224002         2.487037
