19
Iteration:  4738charge 0 multiplicity 1
 C         2.001227        -0.639690        -0.453510
 C         0.662207        -0.409435         0.000280
 C        -0.549527        -0.279942        -0.159488
 C        -1.898621        -0.436160        -0.269093
 C        -2.785674         0.602434        -0.913716
 O        -2.381841        -0.477497         1.350094
 C        -3.631105        -0.809276         1.702554
 C        -3.877633        -0.579465         3.150355
 O        -4.472246        -1.230247         0.961774
 H         2.508031         0.252059        -0.818483
 H         2.674946        -0.949981         0.331297
 H         2.123649        -1.303492        -1.313298
 H        -2.245139        -1.369146        -0.528678
 H        -3.724932         0.271272        -1.203967
 H        -2.868581         1.419567        -0.265299
 H        -2.286096         0.965513        -1.881873
 H        -2.977008        -0.959741         3.669395
 H        -3.933627         0.489956         3.461042
 H        -4.769653        -1.194327         3.201345
