19
Iteration:   348
 C         1.605776        -0.189230         0.358053
 C         0.207548         0.022896         0.022860
 C        -1.014895         0.031946        -0.121608
 C        -2.492320        -0.051604        -0.343746
 C        -3.086602         0.977559        -1.118976
 O        -3.368650        -0.141526         0.872362
 C        -2.999330        -1.287463         1.578635
 C        -3.906098        -1.483853         2.868393
 O        -2.084869        -1.977322         1.209484
 H         2.240904         0.602925         0.350610
 H         1.708561        -0.581912         1.412141
 H         2.114659        -1.010756        -0.322578
 H        -2.594366        -1.025904        -0.761435
 H        -3.325317         1.827922        -0.422351
 H        -2.461191         1.366070        -1.934446
 H        -3.993035         0.546283        -1.683029
 H        -3.435901        -2.082878         3.621829
 H        -3.954844        -0.492366         3.294528
 H        -4.882890        -1.815553         2.528326
