19
Iteration:  1911charge 0 multiplicity 1
 C         1.996653         0.237884         0.073176
 C         0.518796         0.133901         0.007876
 C        -0.565827        -0.258694        -0.330935
 C        -2.002085        -0.566690        -0.274342
 C        -2.753491         0.510744        -1.089442
 O        -2.509717        -0.306112         1.221849
 C        -3.499277        -1.152944         1.625961
 C        -4.041477        -0.783942         3.046639
 O        -4.080051        -2.052824         1.010004
 H         2.344017         0.260449        -0.854386
 H         2.311589         1.118567         0.539235
 H         2.432301        -0.626119         0.752739
 H        -2.337965        -1.546870        -0.664271
 H        -2.778695         1.460386        -0.426398
 H        -2.351807         0.772650        -2.012562
 H        -3.775563         0.295289        -1.283769
 H        -4.058900         0.333275         2.982670
 H        -5.070724        -1.107574         3.116021
 H        -3.219744        -1.006927         3.753818
