19
Iteration:  4128
 C         1.107830        -1.363061         0.561837
 C         0.037684        -0.644710        -0.011443
 C        -1.053769        -0.283558        -0.440063
 C        -2.432200         0.121313        -0.502887
 C        -2.677767         1.574029        -1.106597
 O        -3.137478         0.225040         0.925918
 C        -2.938406        -0.980360         1.588372
 C        -3.453031        -0.858465         2.982974
 O        -2.537594        -2.041686         1.189359
 H         0.958192        -2.450623         0.413380
 H         2.123175        -1.181061         0.322814
 H         0.915345        -1.224569         1.576619
 H        -3.088508        -0.582914        -1.070011
 H        -3.793914         1.599126        -1.429943
 H        -2.760025         2.349947        -0.371380
 H        -1.887789         1.877670        -1.847399
 H        -3.763236         0.154452         3.261449
 H        -4.395771        -1.407274         3.097098
 H        -2.666062        -1.175314         3.642922
