19
Iteration:   198charge 0 multiplicity 1
 C         1.516118         0.287186         0.360183
 C         0.100247         0.045669         0.219540
 C        -1.062800        -0.149757        -0.127843
 C        -2.498491        -0.143173        -0.460370
 C        -2.921686         1.203103        -1.223489
 O        -3.055713        -0.241603         0.860977
 C        -3.051930        -1.425989         1.574468
 C        -3.665887        -1.304538         2.983318
 O        -2.568009        -2.456501         1.177805
 H         2.162111        -0.271295        -0.601375
 H         1.671299         1.380478         0.162390
 H         2.048213         0.020766         1.205269
 H        -2.681445        -1.116458        -0.986788
 H        -2.962041         1.880479        -0.456179
 H        -2.086113         1.532565        -1.799151
 H        -3.806500         1.203624        -1.750110
 H        -4.392512        -2.130193         2.974784
 H        -2.950644        -1.501190         3.800956
 H        -4.093493        -0.335900         3.237913
