19
Iteration:  1909
 C         2.011978         0.236869         0.090509
 C         0.521504         0.128757         0.008655
 C        -0.565895        -0.245613        -0.326933
 C        -2.012689        -0.564170        -0.284333
 C        -2.770516         0.499317        -1.073721
 O        -2.501751        -0.321511         1.215499
 C        -3.506669        -1.161241         1.611546
 C        -4.032824        -0.773207         3.028960
 O        -4.089897        -2.039933         1.023295
 H         2.326995         0.277974        -0.924525
 H         2.380767         1.198635         0.487341
 H         2.496524        -0.583207         0.732532
 H        -2.342015        -1.516903        -0.667993
 H        -2.740768         1.453688        -0.369470
 H        -2.305969         0.765764        -1.977309
 H        -3.833011         0.208658        -1.280839
 H        -4.036656         0.329387         2.995061
 H        -5.102062        -1.082828         3.074026
 H        -3.219335        -1.063618         3.774746
