19
Iteration:  2849
 C         2.134318         0.232613        -0.327555
 C         0.736057        -0.079704        -0.057538
 C        -0.433858        -0.354722         0.069850
 C        -1.891040        -0.739660        -0.004124
 C        -2.594621         0.264943        -1.051975
 O        -2.406066        -0.717132         1.372244
 C        -3.693874        -0.927988         1.633623
 C        -4.188727        -0.774452         3.054294
 O        -4.538285        -1.145736         0.730417
 H         2.519310         1.331291        -0.155649
 H         2.767795        -0.515683         0.297395
 H         2.440731        -0.065659        -1.420978
 H        -1.926350        -1.816334        -0.294741
 H        -3.713433        -0.060024        -1.234383
 H        -2.659370         1.212781        -0.538035
 H        -1.977739         0.255688        -1.931718
 H        -4.725728        -1.757689         3.148340
 H        -3.533437        -0.514554         3.907988
 H        -5.013612        -0.042092         3.105511
