19
Iteration:  1026
 C         1.950870         0.495173         0.044000
 C         0.513012         0.211094        -0.120750
 C        -0.676392        -0.074094        -0.000087
 C        -2.100066        -0.331305        -0.167618
 C        -2.870764         0.692446        -1.049804
 O        -2.803316        -0.233718         1.148451
 C        -3.464555        -1.397024         1.565429
 C        -3.861954        -1.107852         2.940114
 O        -3.664460        -2.399113         0.951991
 H         2.144476         0.314365         1.128468
 H         2.479973        -0.340047        -0.554372
 H         2.233345         1.443857        -0.257779
 H        -2.235398        -1.352556        -0.460796
 H        -2.694474         1.665809        -0.609351
 H        -2.468832         0.712379        -2.052942
 H        -3.959012         0.591370        -0.996682
 H        -4.878791        -1.518499         3.130867
 H        -3.143692        -1.539417         3.684113
 H        -3.975511        -0.063754         3.162088
