19
Iteration:   213
 C         1.501827         0.267163         0.360197
 C         0.112258        -0.050240         0.140985
 C        -1.035864        -0.046421        -0.268954
 C        -2.417794        -0.078016        -0.498713
 C        -2.871326         1.216686        -1.116919
 O        -3.193725        -0.263540         0.829811
 C        -3.022734        -1.463045         1.597363
 C        -3.734613        -1.289732         3.043222
 O        -2.465519        -2.476517         1.233344
 H         2.063566        -0.063637        -0.502601
 H         1.651221         1.334364         0.540927
 H         1.793199        -0.307130         1.385000
 H        -2.753819        -0.885425        -1.157486
 H        -3.188799         2.063973        -0.420065
 H        -2.062081         1.480183        -1.935027
 H        -3.842395         0.916449        -1.638939
 H        -4.504080        -2.091589         3.158580
 H        -2.864317        -1.354151         3.713760
 H        -4.204198        -0.287243         3.074424
