19
Iteration:  4035charge 0 multiplicity 1
 C         1.502946        -0.789264         0.359415
 C         0.084717        -0.797719         0.132874
 C        -1.004950        -0.405742        -0.225046
 C        -2.439258         0.042988        -0.517642
 C        -2.417664         1.453025        -0.959267
 O        -3.090311         0.139026         0.854636
 C        -3.263655        -1.054312         1.575166
 C        -3.294151        -0.750939         2.974021
 O        -3.270001        -2.206497         1.103021
 H         1.795927        -1.700359        -0.153304
 H         2.012838         0.039190        -0.157372
 H         1.811113        -0.912048         1.430943
 H        -2.932018        -0.705404        -1.031383
 H        -3.360788         1.766347        -0.619696
 H        -1.712061         2.168368        -0.516916
 H        -2.317372         1.539116        -2.064312
 H        -2.309830        -0.249830         3.203422
 H        -3.998148         0.044346         3.223143
 H        -3.354445        -1.631864         3.597499
