19
Iteration:  3243
 C         1.474044        -0.849141         0.346547
 C         0.147635        -0.626367        -0.100581
 C        -1.070456        -0.505684        -0.160660
 C        -2.418200        -0.141675        -0.453974
 C        -2.322690         1.323879        -1.016139
 O        -3.402267        -0.103666         0.612383
 C        -3.132894        -0.946311         1.652487
 C        -4.203153        -0.812681         2.778814
 O        -2.230580        -1.702557         1.651419
 H         1.490074        -1.894037         0.811548
 H         2.192064        -0.924274        -0.526470
 H         1.894503        -0.051965         0.920913
 H        -2.746021        -0.816606        -1.322251
 H        -3.398660         1.645322        -1.213808
 H        -1.879890         2.173405        -0.286566
 H        -1.722091         1.285032        -2.025651
 H        -4.509334         0.239659         2.928298
 H        -5.189407        -1.255631         2.542683
 H        -3.777167        -1.139233         3.715513
