19
Iteration:  3555charge 0 multiplicity 1
 C         1.838345        -0.090103         0.353054
 C         0.477403        -0.310728        -0.088455
 C        -0.659239        -0.640361        -0.448670
 C        -2.127643        -0.647744        -0.243131
 C        -2.809566         0.445219        -1.104634
 O        -2.430090        -0.219006         1.147166
 C        -3.479968        -0.833507         1.632448
 C        -3.644526        -0.536002         3.106431
 O        -4.148900        -1.572366         0.884574
 H         2.636323        -0.475152        -0.253345
 H         2.001418         1.057922         0.307114
 H         2.035861        -0.323135         1.446797
 H        -2.837546        -1.452946        -0.496904
 H        -3.987859         0.542404        -1.139366
 H        -2.362429         1.368318        -0.936235
 H        -2.460729         0.218567        -2.108865
 H        -4.452857         0.186904         3.319462
 H        -3.827079        -1.390926         3.705025
 H        -2.724750        -0.047682         3.471000
