19
Iteration:  3667
 C         2.070865         0.084394        -0.164785
 C         0.675289        -0.091917        -0.069030
 C        -0.515981        -0.355131         0.031626
 C        -1.930880        -0.772490        -0.124882
 C        -2.613795        -0.016746        -1.325452
 O        -2.417299        -0.572974         1.321725
 C        -3.723952        -0.787357         1.642390
 C        -3.846313        -0.813350         3.219327
 O        -4.604879        -0.911536         0.848467
 H         2.331799        -0.411001        -1.131819
 H         2.405814         1.106181        -0.139848
 H         2.383318        -0.440948         0.763759
 H        -2.123825        -1.840000        -0.276871
 H        -3.529990        -0.484797        -1.421182
 H        -2.973866         0.958639        -0.899886
 H        -1.948593         0.166381        -2.237206
 H        -4.802404        -0.325764         3.378876
 H        -3.889220        -1.935057         3.372758
 H        -2.999254        -0.319547         3.682788
