19
Iteration:   859
 C         1.858744         1.016775        -0.248155
 C         0.603172         0.395878        -0.041905
 C        -0.413538        -0.247370        -0.047649
 C        -1.832735        -0.654709        -0.022392
 C        -2.746628         0.289647        -0.902717
 O        -2.352890        -0.703604         1.400776
 C        -3.601785        -1.285962         1.580475
 C        -4.109298        -1.183578         2.987678
 O        -4.285326        -1.789793         0.677030
 H         1.737305         2.185368        -0.422764
 H         2.463804         0.838561         0.669954
 H         2.386293         0.542104        -1.013386
 H        -1.921514        -1.594137        -0.479006
 H        -2.482434         1.301578        -0.714606
 H        -2.692118         0.009962        -1.952724
 H        -3.784447         0.079502        -0.679364
 H        -3.471891        -0.437469         3.517588
 H        -5.209870        -1.110869         3.040572
 H        -4.008502        -2.234512         3.445952
