19
Iteration:  3344
 C         1.728394        -0.986882         0.047201
 C         0.407038        -0.441016        -0.103800
 C        -0.790865        -0.192389        -0.068494
 C        -2.284471        -0.091761        -0.248468
 C        -2.705799         1.098259        -1.180624
 O        -3.039004         0.061858         0.887195
 C        -3.251265        -0.965287         1.807308
 C        -4.492196        -0.673878         2.616750
 O        -2.605208        -1.996148         1.647111
 H         1.589053        -2.025259        -0.096743
 H         2.457125        -0.689147        -0.762435
 H         2.236991        -0.614944         0.967896
 H        -2.441864        -1.028668        -0.841073
 H        -3.778596         0.908040        -1.158063
 H        -2.315072         2.213798        -1.049891
 H        -2.451129         0.779341        -2.266554
 H        -5.008170         0.170090         2.179654
 H        -5.033187        -1.594182         2.687546
 H        -4.347817        -0.459254         3.694696
