19
Iteration:  3626
 C         2.134051        -0.089292         0.097890
 C         0.681307        -0.006812        -0.072774
 C        -0.516557        -0.270087        -0.215798
 C        -1.872309        -0.650627        -0.279815
 C        -2.816847         0.014587        -1.176976
 O        -2.465587        -0.496393         1.234561
 C        -3.765585        -0.870759         1.594403
 C        -3.608795        -0.719586         3.112480
 O        -4.724412        -1.106459         0.949767
 H         2.830493        -0.613482        -0.587875
 H         2.627913         0.820066         0.281021
 H         2.227375        -0.570476         1.048333
 H        -1.708323        -1.825411        -0.350320
 H        -3.750364        -0.485593        -1.222484
 H        -2.813011         1.207539        -0.925282
 H        -2.421190        -0.004275        -2.274568
 H        -4.448733        -0.070774         3.466595
 H        -3.774211        -1.705998         3.675638
 H        -2.682600        -0.305848         3.540738
