19
Iteration:  1521charge 0 multiplicity 1
 C         1.813990         0.304419         0.051002
 C         0.488124        -0.252462        -0.064003
 C        -0.719141        -0.172200        -0.085791
 C        -2.167068        -0.254765        -0.246041
 C        -2.695842         0.906735        -1.035730
 O        -2.735041        -0.277189         1.111945
 C        -3.462169        -1.345793         1.588516
 C        -3.929446        -0.872125         2.978644
 O        -3.609096        -2.364737         1.025467
 H         1.638254         1.398584         0.500164
 H         2.635348        -0.267339         0.621908
 H         2.162101         0.512568        -0.902681
 H        -2.502672        -1.124590        -0.770731
 H        -2.437512         1.946124        -0.600568
 H        -2.242207         0.774416        -1.980088
 H        -3.860863         0.887692        -1.170168
 H        -3.130805        -0.243376         3.412057
 H        -4.698455        -0.093043         3.012250
 H        -4.096796        -1.652228         3.758786
