19
Iteration:  4040
 C         1.472822        -0.815027         0.389494
 C         0.048647        -0.803773         0.136170
 C        -1.046998        -0.412575        -0.233151
 C        -2.350664         0.070438        -0.533334
 C        -2.433664         1.485149        -0.970108
 O        -3.102834         0.093467         0.831006
 C        -3.233750        -1.026433         1.568597
 C        -3.274172        -0.743676         3.025831
 O        -3.237348        -2.215616         1.095718
 H         1.728694        -1.746971        -0.183172
 H         1.912461         0.041462        -0.124006
 H         1.858806        -0.834150         1.384005
 H        -3.053487        -0.702775        -1.107293
 H        -3.478478         1.813729        -0.569186
 H        -1.616629         2.162386        -0.579720
 H        -2.359363         1.631423        -2.036055
 H        -2.400020        -0.147180         3.203976
 H        -4.104399        -0.031108         3.213834
 H        -3.341554        -1.629116         3.676593
