19
Iteration:  2287
 C         1.581350        -0.780028         0.310220
 C         0.225572        -0.342495        -0.048070
 C        -0.967762        -0.072407         0.011485
 C        -2.310147         0.043889        -0.480137
 C        -2.705872         1.330113        -1.029676
 O        -3.415841        -0.198345         0.613961
 C        -3.230748        -1.217000         1.589869
 C        -3.866390        -0.834806         2.875745
 O        -2.460854        -2.126305         1.500031
 H         1.611303        -0.911209         1.436537
 H         1.908334        -1.740291        -0.220928
 H         2.359283        -0.012093         0.022244
 H        -2.453006        -0.739123        -1.256061
 H        -2.640013         2.271167        -0.387723
 H        -2.010816         1.522110        -1.785385
 H        -3.647632         1.350322        -1.546286
 H        -4.117738         0.210369         2.826090
 H        -4.726881        -1.450311         3.110229
 H        -3.057558        -1.175532         3.543529
