19
Iteration:  3701
 C         2.003389         0.301647        -0.349048
 C         0.754631        -0.346360        -0.065966
 C        -0.453668        -0.565402        -0.010805
 C        -1.982167        -0.822193         0.036992
 C        -2.556909         0.043350        -1.092815
 O        -2.382509        -0.545981         1.422584
 C        -3.716298        -0.712755         1.613849
 C        -4.042023        -0.822163         3.070488
 O        -4.526381        -0.859055         0.761016
 H         2.473520        -0.032529        -1.319698
 H         1.990367         1.353368        -0.386659
 H         2.824475        -0.040619         0.304628
 H        -2.124924        -1.876118         0.058520
 H        -3.537465        -0.316955        -1.213357
 H        -2.600802         1.163047        -0.796960
 H        -2.182317        -0.140080        -2.131011
 H        -5.129376        -0.670877         3.219747
 H        -3.869696        -1.915296         3.374049
 H        -3.498020        -0.270392         3.846713
