19
Iteration:   495
 C         1.601373         0.409289         0.114532
 C         0.245826        -0.052733         0.062646
 C        -0.960907        -0.161235        -0.134048
 C        -2.441464        -0.188855        -0.211951
 C        -2.750430         1.010656        -1.176792
 O        -2.988833        -0.186966         0.994625
 C        -3.090792        -1.353076         1.631211
 C        -3.909994        -1.234187         2.911444
 O        -2.810234        -2.472506         1.178678
 H         2.070255         0.590272         1.208171
 H         2.317813        -0.105999        -0.466398
 H         1.642777         1.348400        -0.262597
 H        -2.777501        -1.072620        -0.827085
 H        -2.791999         2.011214        -0.606314
 H        -2.005088         1.085156        -1.950609
 H        -3.763488         0.973194        -1.593609
 H        -3.631806        -0.328420         3.569834
 H        -5.010223        -1.273915         2.578568
 H        -3.671708        -2.192828         3.536807
