19
Iteration:  3158charge 0 multiplicity 1
 C         1.525568        -0.866619         0.457348
 C         0.232026        -0.526233        -0.000167
 C        -0.947320        -0.338277        -0.257973
 C        -2.398240        -0.055317        -0.454213
 C        -2.698124         1.269143        -1.063167
 O        -3.170346        -0.027047         0.747433
 C        -3.130817        -1.043109         1.600686
 C        -4.061683        -0.558741         2.743700
 O        -2.481140        -2.126865         1.540251
 H         1.572269        -1.433009         1.347019
 H         1.976875        -1.463483        -0.371981
 H         2.157727         0.074290         0.583857
 H        -2.681686        -0.906388        -1.033671
 H        -3.599195         1.276188        -1.515364
 H        -2.346783         2.118630        -0.505031
 H        -2.004716         1.295274        -1.950251
 H        -3.658818         0.399347         3.113462
 H        -5.007194        -0.523795         2.246106
 H        -4.320092        -1.285503         3.492623
