19
Iteration:    87
 C         1.740879         0.471833         0.264101
 C         0.323932         0.477160         0.099811
 C        -0.792637         0.132429        -0.161453
 C        -2.189322        -0.261536        -0.298239
 C        -3.113616         0.803947        -1.065407
 O        -2.731775        -0.327637         1.110558
 C        -3.239605        -1.508906         1.550749
 C        -3.768233        -1.292482         2.979932
 O        -3.287944        -2.512191         0.846685
 H         2.021328        -0.558991         0.844424
 H         2.287712         0.543212        -0.677057
 H         2.052725         1.175093         0.923018
 H        -2.259995        -1.311982        -0.648896
 H        -2.810462         1.789998        -0.754724
 H        -2.910077         0.830142        -2.072573
 H        -4.132209         0.534378        -1.012175
 H        -4.678832        -1.843555         3.235847
 H        -2.978065        -1.734806         3.624167
 H        -3.901572        -0.204267         3.099393
