19
Iteration:  2757
 C         2.109113         0.165987        -0.310673
 C         0.653733        -0.159432        -0.076958
 C        -0.537657        -0.435186         0.044857
 C        -1.961996        -0.619138         0.075689
 C        -2.497002         0.364016        -1.165627
 O        -2.482206        -0.293208         1.384774
 C        -3.746533        -0.896756         1.684926
 C        -4.206888        -0.924930         3.084999
 O        -4.304423        -1.443548         0.724909
 H         2.306616         1.063786        -0.852714
 H         2.637386         0.035373         0.705598
 H         2.513071        -0.711138        -1.008805
 H        -2.199655        -1.674713        -0.259336
 H        -3.547266         0.173158        -1.445711
 H        -2.445383         1.450564        -0.841744
 H        -1.776112         0.151954        -2.024907
 H        -5.216417        -0.600156         3.185279
 H        -4.082824        -1.979807         3.376345
 H        -3.470428        -0.376119         3.692370
