19
Iteration:  2622
 C         1.964608        -0.150398         0.224959
 C         0.610931        -0.156252        -0.120920
 C        -0.582241        -0.216772        -0.287427
 C        -2.073109        -0.350864        -0.292716
 C        -2.852617         0.796503        -0.979339
 O        -2.535066        -0.247949         1.124742
 C        -3.552254        -1.136957         1.639053
 C        -3.994881        -0.626535         2.903631
 O        -3.939501        -2.137628         1.019173
 H         2.876496        -0.133665        -0.553697
 H         2.149043         0.629625         0.948262
 H         2.039784        -1.067837         0.778424
 H        -2.440177        -1.321600        -0.698756
 H        -2.429268         1.736084        -0.425725
 H        -2.675084         0.675329        -2.018066
 H        -3.909002         0.841389        -0.738370
 H        -3.234079         0.040113         3.404067
 H        -4.897216        -0.024966         2.679309
 H        -4.231525        -1.456809         3.586232
