19
Iteration:  3751charge 0 multiplicity 1
 C         1.894107         0.324253        -0.535989
 C         0.684621        -0.263886        -0.226549
 C        -0.369598        -0.801530         0.099649
 C        -1.904046        -0.790460         0.104338
 C        -2.252911         0.300836        -0.901920
 O        -2.430382        -0.648600         1.541451
 C        -3.804522        -0.823731         1.637669
 C        -4.175185        -0.667507         3.051039
 O        -4.562024        -1.048332         0.648007
 H         2.292982         0.095177        -1.510899
 H         1.696228         1.441020        -0.496089
 H         2.733541         0.097781         0.161685
 H        -2.286689        -1.809783        -0.172511
 H        -3.323502         0.553118        -1.056862
 H        -1.625897         1.145187        -0.733233
 H        -1.927139        -0.205344        -1.831290
 H        -5.233166        -0.532693         3.199032
 H        -3.813511        -1.513604         3.624827
 H        -3.622041         0.210789         3.373979
