19
Iteration:  4159charge 0 multiplicity 1
 C         1.110137        -1.519554         0.450973
 C        -0.096662        -0.823962         0.120233
 C        -0.960390        -0.021104        -0.322484
 C        -2.461532         0.157566        -0.534193
 C        -2.858335         1.563911        -1.197118
 O        -2.926425         0.237420         0.970414
 C        -2.907495        -0.960399         1.594794
 C        -3.677221        -0.881788         2.987757
 O        -2.373614        -1.979631         1.190254
 H         0.994637        -2.582966         0.337019
 H         1.994448        -1.134117        -0.022716
 H         1.233057        -1.241704         1.510186
 H        -2.778027        -0.706327        -1.033867
 H        -3.888860         1.404646        -1.731611
 H        -2.823021         2.372501        -0.467734
 H        -2.251799         1.913342        -2.063253
 H        -4.275199         0.018874         3.078225
 H        -4.290958        -1.772658         3.134791
 H        -2.960922        -0.891716         3.803105
