19
Iteration:  2130charge 0 multiplicity 1
 C         1.657288        -0.432744         0.297714
 C         0.250342        -0.241381         0.057747
 C        -0.921923        -0.340471        -0.149333
 C        -2.392029        -0.168231        -0.354804
 C        -2.805576         1.105311        -1.197762
 O        -2.853401         0.081988         1.075180
 C        -3.106500        -1.160189         1.653032
 C        -4.086003        -0.826108         2.774289
 O        -2.825541        -2.270819         1.176703
 H         2.050942         0.504878         0.500516
 H         1.857776        -1.142978         1.066896
 H         2.169252        -0.712631        -0.765941
 H        -2.904280        -1.102973        -0.545440
 H        -2.365795         1.951111        -0.698666
 H        -2.531327         0.944831        -2.299692
 H        -3.842560         1.362286        -0.995700
 H        -3.559224        -1.092357         3.723862
 H        -4.305788         0.232048         2.569921
 H        -4.928813        -1.497794         2.767858
