19
Iteration:  1813charge 0 multiplicity 1
 C         1.965919         0.478797        -0.060500
 C         0.527681         0.296771        -0.152440
 C        -0.497681        -0.442981        -0.181347
 C        -1.941665        -0.700317        -0.157906
 C        -2.755813         0.276130        -0.934483
 O        -2.281261        -0.640980         1.313886
 C        -3.581511        -1.058260         1.642724
 C        -4.169407        -0.843916         3.061393
 O        -4.212242        -1.601886         0.798232
 H         2.523448        -0.244714        -0.644469
 H         2.122449         1.405953        -0.540130
 H         2.350315         0.691164         1.064657
 H        -2.098480        -1.805671        -0.430127
 H        -2.622040         1.379730        -0.616302
 H        -2.423457         0.324449        -1.902901
 H        -3.801129         0.037289        -1.045663
 H        -3.472996        -1.236640         3.798754
 H        -4.180297         0.247641         3.162959
 H        -5.171007        -1.329616         3.068142
