19
Iteration:  3276
 C         1.610192        -0.905343         0.260166
 C         0.200082        -0.592358        -0.077491
 C        -1.007835        -0.417122        -0.226181
 C        -2.373937        -0.177233        -0.529096
 C        -2.523543         1.403646        -1.090774
 O        -3.247766        -0.005051         0.711333
 C        -3.088945        -0.979341         1.724684
 C        -4.348182        -0.758364         2.661042
 O        -2.311836        -1.900289         1.848725
 H         1.635881        -2.002862         0.561260
 H         2.218475        -0.868386        -0.705638
 H         2.090509        -0.355485         1.047856
 H        -3.036842        -0.790544        -1.196073
 H        -3.525143         1.406749        -1.479928
 H        -2.284776         2.115856        -0.184187
 H        -1.790962         1.772375        -1.936893
 H        -4.658172         0.263204         2.392773
 H        -5.129658        -1.491790         2.459768
 H        -4.250969        -0.785408         3.745201
