19
Iteration:  4913charge 0 multiplicity 1
 C         1.927101        -0.769333        -0.362464
 C         0.457470        -0.705355        -0.348817
 C        -0.720879        -0.421757        -0.275439
 C        -2.185135        -0.107181        -0.237839
 C        -2.419604         1.294560        -0.826625
 O        -2.684989         0.048945         1.174445
 C        -3.522090        -1.068904         1.712144
 C        -4.057988        -0.508906         3.075537
 O        -3.845823        -2.129850         1.352858
 H         2.473751        -0.772127        -1.346286
 H         2.539943        -0.131287         0.284224
 H         2.224930        -1.823199         0.047312
 H        -2.777406        -0.826731        -0.896277
 H        -3.315292         1.357748        -1.429777
 H        -2.424854         2.109849        -0.111842
 H        -1.613728         1.547768        -1.447263
 H        -4.861162        -1.273536         3.333539
 H        -3.181616        -0.311427         3.701503
 H        -4.427535         0.514259         2.920377
