19
Iteration:  4654charge 0 multiplicity 1
 C         1.942876        -0.188244        -0.091816
 C         0.534677        -0.540242        -0.290574
 C        -0.650911        -0.804350        -0.379492
 C        -2.126224        -0.686860        -0.283430
 C        -2.589681         0.680125        -0.796361
 O        -2.274713        -0.673439         1.266326
 C        -3.535092        -0.680156         1.697781
 C        -3.725880        -0.639817         3.156307
 O        -4.525491        -0.929072         0.934402
 H         1.981572         0.947809         0.048910
 H         2.467648        -0.665873         0.748204
 H         2.381287        -0.493407        -1.092932
 H        -2.682934        -1.606877        -0.754553
 H        -3.621831         0.746312        -0.449011
 H        -1.962281         1.533583        -0.384590
 H        -2.644378         0.866670        -1.926151
 H        -2.814520        -0.718338         3.780349
 H        -4.194365         0.334218         3.347274
 H        -4.416551        -1.322565         3.633961
