19
Iteration:  4572charge 0 multiplicity 1
 C         1.918569        -0.176723        -0.186550
 C         0.587561        -0.525006        -0.316440
 C        -0.576366        -0.945008        -0.263147
 C        -2.020049        -0.637894        -0.179689
 C        -2.366674         0.662071        -1.001465
 O        -2.415257        -0.260829         1.269460
 C        -3.715358        -0.806855         1.669999
 C        -3.619138        -0.818540         3.190722
 O        -4.748183        -0.996970         1.046914
 H         2.046947         0.617845         0.543437
 H         2.478903        -1.062216         0.231445
 H         2.447800         0.183283        -1.098799
 H        -2.570957        -1.456401        -0.518853
 H        -3.521585         0.726559        -0.937077
 H        -2.007267         1.604467        -0.528075
 H        -2.070041         0.536891        -2.137592
 H        -2.587423        -1.020099         3.536515
 H        -3.857777         0.197436         3.607517
 H        -4.374449        -1.549638         3.596787
