19
Iteration:  3324charge 0 multiplicity 1
 C         1.714137        -1.005188         0.093538
 C         0.324830        -0.557340        -0.107872
 C        -0.812265        -0.156614        -0.101435
 C        -2.227751        -0.031683        -0.452283
 C        -2.754950         1.181852        -1.223554
 O        -3.081511         0.073464         0.878659
 C        -3.226713        -1.005332         1.736897
 C        -4.442617        -0.715025         2.573410
 O        -2.552056        -2.024823         1.872130
 H         1.863171        -2.068152         0.213123
 H         2.311856        -0.672801        -0.764732
 H         2.148295        -0.472927         1.050746
 H        -2.498912        -0.956333        -1.019186
 H        -3.916933         1.272947        -1.211943
 H        -2.157385         1.925678        -0.542915
 H        -2.332115         1.393952        -2.250642
 H        -5.008779         0.180806         2.336200
 H        -5.065554        -1.626974         2.642470
 H        -4.174342        -0.611964         3.650184
