19
Iteration:  3548
 C         1.817631        -0.077999         0.386093
 C         0.481898        -0.325406        -0.153747
 C        -0.664875        -0.698333        -0.389603
 C        -2.192819        -0.611997        -0.299735
 C        -2.750865         0.508284        -1.100803
 O        -2.408765        -0.181180         1.134272
 C        -3.530071        -0.861811         1.624559
 C        -3.657790        -0.517114         3.065919
 O        -4.109334        -1.629195         0.944466
 H         2.535985        -0.499582        -0.333108
 H         2.012443         0.941344         0.322941
 H         1.997426        -0.266741         1.421092
 H        -2.649842        -1.612441        -0.356392
 H        -3.825557         0.515760        -0.905673
 H        -2.486729         1.604135        -0.893551
 H        -2.443847         0.249969        -2.174806
 H        -4.446865         0.189808         3.350280
 H        -3.849003        -1.450531         3.659810
 H        -2.697545        -0.029598         3.364153
