19
Iteration:  4492
 C         2.101136        -0.767217        -0.354003
 C         0.696653        -0.295258        -0.146364
 C        -0.499833        -0.195546        -0.117910
 C        -2.018935        -0.381585        -0.073980
 C        -2.955453         0.465923        -0.862549
 O        -2.392426        -0.311441         1.343401
 C        -3.679455        -0.756376         1.590860
 C        -3.819294        -0.708160         3.148930
 O        -4.393558        -1.227886         0.794229
 H         2.767166        -0.572698         0.566818
 H         2.236729        -1.872177        -0.593908
 H         2.652453        -0.257685        -1.171007
 H        -2.061445        -1.425131        -0.339591
 H        -3.985483         0.046052        -0.798064
 H        -2.844213         1.485229        -0.304728
 H        -2.675438         0.575920        -1.896657
 H        -2.965797        -1.265660         3.593746
 H        -3.761783         0.373874         3.408899
 H        -4.797024        -1.106439         3.431213
