19
Iteration:  1892charge 0 multiplicity 1
 C         2.048154         0.323485         0.066604
 C         0.603362         0.029064         0.003834
 C        -0.564973        -0.176834        -0.181737
 C        -2.018369        -0.521607        -0.209276
 C        -2.905583         0.481125        -0.991938
 O        -2.442939        -0.510740         1.117318
 C        -3.552048        -1.121970         1.582954
 C        -3.955418        -0.653605         2.952840
 O        -4.146339        -2.018287         0.993344
 H         2.542070         0.072568        -0.966805
 H         2.248283         1.328277         0.450949
 H         2.481686        -0.397510         0.802294
 H        -2.078892        -1.587756        -0.591327
 H        -3.085870         1.397050        -0.511537
 H        -2.508722         0.691234        -2.048617
 H        -3.908329         0.143269        -1.168737
 H        -3.718808         0.371090         3.292838
 H        -5.009848        -0.876472         2.975097
 H        -3.496708        -1.341393         3.634282
