19
Iteration:    43charge 0 multiplicity 1
 C         1.868193         0.721542         0.229875
 C         0.484835         0.291080        -0.084131
 C        -0.714068         0.145048        -0.203216
 C        -2.136905        -0.297539        -0.217096
 C        -3.140501         0.633289        -0.961892
 O        -2.588326        -0.403375         1.187504
 C        -3.348259        -1.468004         1.556279
 C        -3.913214        -1.367061         3.033160
 O        -3.521902        -2.327531         0.742453
 H         2.130868         0.269106         1.269454
 H         2.574226         0.409307        -0.516440
 H         1.872666         1.700779         0.322360
 H        -2.073658        -1.281016        -0.707325
 H        -3.339507         1.387170        -0.193959
 H        -2.708923         1.086229        -1.765972
 H        -3.964083         0.012026        -1.249828
 H        -4.779572        -2.040597         3.165648
 H        -3.069854        -1.779553         3.610306
 H        -4.167460        -0.317916         3.257107
