19
Iteration:    98charge 0 multiplicity 1
 C         1.771369         0.454653         0.301214
 C         0.325240         0.377713         0.132774
 C        -0.854633         0.225257        -0.162514
 C        -2.202941        -0.260144        -0.411973
 C        -3.093157         0.874456        -1.195547
 O        -2.778956        -0.267167         1.158158
 C        -3.265514        -1.530938         1.544925
 C        -3.744344        -1.350119         3.040673
 O        -3.232479        -2.568186         0.901031
 H         2.180051        -0.669153         0.585864
 H         2.211982         0.689688        -0.679891
 H         2.077894         1.171387         0.939220
 H        -2.215787        -1.297032        -0.804950
 H        -2.750462         1.781956        -0.768791
 H        -2.973635         0.759379        -2.200197
 H        -4.088653         0.853492        -0.854008
 H        -4.704426        -1.854680         3.132237
 H        -2.988600        -1.645633         3.805977
 H        -3.886879        -0.265077         3.216984
