19
Iteration:  3823
 C         2.180359        -0.024963        -0.558874
 C         0.752704        -0.331470        -0.160740
 C        -0.456251        -0.516861         0.049430
 C        -1.939320        -0.602722         0.037955
 C        -2.618607         0.556470        -0.661546
 O        -2.519957        -0.538770         1.446082
 C        -3.775004        -0.894853         1.542526
 C        -4.156597        -0.437489         2.961155
 O        -4.419585        -1.551338         0.706149
 H         2.745892        -0.474850        -1.471308
 H         2.373285         1.063292        -0.627957
 H         2.859300        -0.338900         0.239263
 H        -2.155753        -1.612977        -0.330979
 H        -3.708036         0.326620        -0.850409
 H        -2.537600         1.295904         0.158522
 H        -2.036763         0.868008        -1.494613
 H        -5.217156        -0.614372         3.236662
 H        -3.433698        -1.041116         3.529249
 H        -3.822756         0.648853         2.979533
