19
Iteration:  1757charge 0 multiplicity 1
 C         1.934123         0.713591        -0.341715
 C         0.765530        -0.103312        -0.039504
 C        -0.404780        -0.424463         0.158240
 C        -1.847548        -0.656185         0.003905
 C        -2.633023         0.255544        -1.055459
 O        -2.544144        -0.413440         1.289413
 C        -3.725333        -1.032356         1.553265
 C        -3.962739        -1.083823         3.125013
 O        -4.453315        -1.573634         0.730271
 H         2.857021         0.244348        -0.274917
 H         1.819747         1.257728        -1.252194
 H         2.095290         1.506743         0.555514
 H        -1.944935        -1.731407        -0.346310
 H        -2.517027         1.336235        -0.761311
 H        -2.288108         0.141589        -2.004688
 H        -3.709211        -0.094300        -0.947910
 H        -4.176214        -2.124286         3.297663
 H        -3.044535        -0.786840         3.668844
 H        -4.761691        -0.322100         3.227443
