19
Iteration:  2586charge 0 multiplicity 1
 C         1.905589        -0.128531         0.199781
 C         0.503042        -0.322737         0.011522
 C        -0.682753        -0.360665        -0.195561
 C        -2.149556        -0.290648        -0.267595
 C        -2.795874         0.864686        -1.114486
 O        -2.636754        -0.119577         1.129078
 C        -3.460962        -1.069054         1.595077
 C        -3.979574        -0.776479         3.025082
 O        -3.695294        -2.077939         0.945845
 H         2.684467        -0.346047        -0.664373
 H         2.087865         0.882279         0.621471
 H         2.103344        -0.801565         1.020082
 H        -2.449035        -1.271727        -0.674657
 H        -2.151633         1.638723        -1.381141
 H        -3.016378         0.471331        -2.192188
 H        -3.818578         1.218019        -0.748086
 H        -3.108534        -0.712304         3.675752
 H        -4.447029         0.272977         3.026822
 H        -4.746609        -1.533685         3.388148
