19
Iteration:  1942charge 0 multiplicity 1
 C         1.952438         0.186175         0.107148
 C         0.484859        -0.008987        -0.210268
 C        -0.691220        -0.311590        -0.040500
 C        -2.182276        -0.429565        -0.147183
 C        -2.649118         0.572296        -1.177769
 O        -2.607932        -0.195645         1.201638
 C        -3.521677        -1.119891         1.584136
 C        -3.969309        -0.846373         3.011752
 O        -3.836190        -2.084708         0.979790
 H         2.537454         0.472912        -0.768839
 H         1.949221         0.962190         0.888958
 H         2.445933        -0.803760         0.510728
 H        -2.516068        -1.437083        -0.435994
 H        -2.429039         1.745769        -1.052693
 H        -2.240030         0.278255        -2.080359
 H        -3.750343         0.631561        -1.353956
 H        -4.555259         0.106914         3.031878
 H        -4.467163        -1.736372         3.470120
 H        -3.056208        -0.582876         3.678821
