19
Iteration:  4942
 C         1.789717        -0.911805        -0.222634
 C         0.373361        -0.628292        -0.411469
 C        -0.813306        -0.411788        -0.312551
 C        -2.226623        -0.096885        -0.297980
 C        -2.447997         1.316275        -0.909886
 O        -2.629378        -0.016432         1.234728
 C        -3.442141        -0.945770         1.790679
 C        -4.125274        -0.543716         3.114380
 O        -3.543079        -2.086242         1.232706
 H         2.341423        -1.028071        -1.153342
 H         2.367002        -0.148383         0.339551
 H         1.824852        -1.720629         0.455498
 H        -2.980255        -0.763372        -0.766437
 H        -3.355599         1.460103        -1.502425
 H        -2.504229         2.127006        -0.176327
 H        -1.452174         1.443476        -1.504009
 H        -5.115878        -0.983396         3.067936
 H        -3.511356        -0.940753         3.919075
 H        -4.242517         0.517590         3.158971
