19
Iteration:  3237
 C         1.521168        -0.864764         0.312061
 C         0.132658        -0.633188        -0.057418
 C        -1.058851        -0.513616        -0.152874
 C        -2.452392        -0.087419        -0.534851
 C        -2.300115         1.314336        -1.042833
 O        -3.455253        -0.083459         0.584018
 C        -3.162178        -0.960813         1.702305
 C        -4.189033        -0.828760         2.834178
 O        -2.202175        -1.711810         1.630992
 H         1.545394        -1.709384         0.979377
 H         2.280010        -0.981106        -0.442907
 H         1.759652        -0.043326         1.087194
 H        -2.703447        -0.861742        -1.234522
 H        -3.259493         1.785322        -1.122700
 H        -1.916940         1.942957        -0.277575
 H        -1.814963         1.324310        -1.997348
 H        -4.423666         0.246523         2.885802
 H        -5.147978        -1.209005         2.478884
 H        -3.776540        -1.213184         3.794772
