19
Iteration:  1053
 C         1.923726         0.388506         0.072214
 C         0.438157         0.165753         0.191960
 C        -0.736921        -0.015591        -0.110913
 C        -2.171104        -0.219402        -0.309124
 C        -2.900320         0.804680        -1.141337
 O        -2.759430        -0.312918         1.022309
 C        -3.392961        -1.378668         1.621063
 C        -3.883400        -1.085743         3.026372
 O        -3.544270        -2.468224         1.018969
 H         2.382701        -0.106911         0.922370
 H         2.124164        -0.290191        -0.764922
 H         2.212065         1.553584        -0.142287
 H        -2.274620        -1.294288        -0.812868
 H        -2.354829         1.814215        -1.087790
 H        -2.801075         0.540288        -2.266859
 H        -3.845064         1.183089        -0.680783
 H        -4.453515        -1.922700         3.421773
 H        -2.999410        -1.063818         3.641347
 H        -4.554970        -0.184358         3.227015
