19
Iteration:  2348
 C         1.524202        -0.623204         0.415120
 C         0.104443        -0.435912         0.150277
 C        -1.016219        -0.407842        -0.374815
 C        -2.380692        -0.004349        -0.439347
 C        -2.812879         1.278478        -1.151851
 O        -2.869445         0.179035         0.971581
 C        -3.099691        -1.073700         1.612778
 C        -4.074591        -1.029952         2.783783
 O        -2.548715        -2.117166         1.298477
 H         1.742973        -1.295877         1.221631
 H         1.938775        -1.119538        -0.431260
 H         2.080535         0.341346         0.630303
 H        -2.870956        -0.919655        -0.845643
 H        -2.171921         2.012753        -0.798171
 H        -2.485361         1.050982        -2.244271
 H        -3.966030         1.323020        -1.115191
 H        -4.956819        -0.471758         3.045000
 H        -4.215200        -2.107026         3.006764
 H        -3.412422        -0.574789         3.578062
