19
Iteration:  4954charge 0 multiplicity 1
 C         1.795919        -0.956045        -0.166507
 C         0.345577        -0.598539        -0.364285
 C        -0.853429        -0.489744        -0.283115
 C        -2.342302        -0.073504        -0.229059
 C        -2.496832         1.318050        -0.901960
 O        -2.606325         0.102436         1.220689
 C        -3.414644        -1.013788         1.727248
 C        -4.106209        -0.529985         3.050624
 O        -3.423940        -2.064533         1.162924
 H         2.230634        -1.370970        -1.077242
 H         2.340083        -0.122037         0.286936
 H         1.839988        -1.861170         0.340185
 H        -2.926712        -0.986384        -0.554115
 H        -3.446123         1.295477        -1.407977
 H        -2.408855         1.987856        -0.067423
 H        -1.774975         1.643166        -1.753775
 H        -5.140447        -0.813668         3.298021
 H        -3.593280        -1.058986         3.833270
 H        -3.865333         0.467565         3.289178
