19
Iteration:  3473
 C         1.921710        -0.299514         0.094432
 C         0.452906        -0.309557         0.021955
 C        -0.725454        -0.514850        -0.135295
 C        -2.234363        -0.328421        -0.356222
 C        -2.437525         0.862829        -1.222323
 O        -2.779922        -0.135243         0.935320
 C        -3.510495        -1.038580         1.649796
 C        -3.872140        -0.412328         2.967936
 O        -3.845245        -2.124233         1.361052
 H         2.262398        -1.282859        -0.483441
 H         2.443541         0.658172        -0.345854
 H         2.242015        -0.544969         1.155616
 H        -2.669096        -1.309919        -0.768236
 H        -3.494057         0.930679        -1.260398
 H        -2.136619         1.835896        -0.699241
 H        -2.022415         0.709979        -2.264033
 H        -4.724340         0.272940         2.896788
 H        -4.114090        -1.185148         3.717351
 H        -3.032007         0.204265         3.391022
