19
Iteration:  1274
 C         1.429974        -0.373230         0.376250
 C         0.022569        -0.166649         0.239684
 C        -1.113062        -0.176400        -0.169772
 C        -2.480619        -0.129477        -0.513902
 C        -2.849617         1.243358        -1.106604
 O        -3.227788        -0.205415         0.745549
 C        -2.919877        -1.215086         1.592365
 C        -3.840797        -1.081618         2.872969
 O        -2.187043        -2.071335         1.295786
 H         1.845260        -0.761133        -0.569828
 H         1.941586         0.501932         0.641795
 H         1.513575        -1.136525         1.270607
 H        -2.727241        -1.031740        -1.169387
 H        -2.072286         2.015326        -0.765782
 H        -2.839761         1.229082        -2.229934
 H        -3.924545         1.446253        -0.799878
 H        -4.721125        -0.473131         2.775570
 H        -4.156951        -2.031079         3.248158
 H        -3.275445        -0.879729         3.760737
