19
Iteration:  4255charge 0 multiplicity 1
 C         1.470796        -1.360023         0.001041
 C         0.168307        -0.623566        -0.065950
 C        -0.943975        -0.155324        -0.177902
 C        -2.313414         0.094056        -0.364609
 C        -2.567957         1.459742        -1.109741
 O        -2.995809         0.237219         1.050589
 C        -3.199829        -1.029464         1.679165
 C        -4.009978        -0.734062         2.927848
 O        -2.725386        -2.129736         1.374580
 H         1.383798        -2.412046         0.257513
 H         1.991960        -1.312744        -0.995400
 H         2.083053        -0.653663         0.711915
 H        -2.844537        -0.836428        -0.857416
 H        -3.612203         1.651630        -1.115723
 H        -1.825727         2.196014        -0.834999
 H        -2.450678         1.396853        -2.139914
 H        -5.086755        -0.855949         2.782353
 H        -3.607897        -1.329739         3.764744
 H        -3.819621         0.293035         3.276231
