19
Iteration:  1178charge 0 multiplicity 1
 C         1.434618        -0.042189         0.041254
 C        -0.015244        -0.067794         0.048204
 C        -1.207491         0.062843         0.093067
 C        -2.610685         0.414414         0.091777
 O        -2.692951         1.851018         0.049144
 C        -3.354383        -0.176793         1.348676
 C        -4.715274        -0.606547         1.244755
 C        -5.557823        -1.202213         2.489060
 O        -5.221061        -0.601518         0.103342
 H         1.901376         0.564346        -0.680080
 H         1.691154         0.260122         1.074801
 H         1.820641        -1.100860         0.027785
 H        -3.167028         0.160658        -0.868099
 H        -2.566496         2.066578         0.978566
 H        -2.720493        -1.034418         1.583254
 H        -2.981859         0.522420         2.154453
 H        -6.044937        -0.273198         2.795288
 H        -6.313225        -2.029420         2.258640
 H        -4.963214        -1.534994         3.439432
