19
Iteration:  4024charge 0 multiplicity 1
 C         0.805494        -1.163890         0.255541
 C        -0.582972        -0.640953         0.098776
 C        -1.634958        -0.021707         0.122530
 C        -2.817116         0.848131         0.057289
 O        -2.329739         2.257366        -0.216261
 C        -3.723930         0.876752         1.313032
 C        -4.449687        -0.458617         1.447390
 C        -3.699811        -1.717463         1.481673
 O        -5.661149        -0.430436         1.111330
 H         1.314442        -1.083099        -0.680408
 H         1.237916        -0.471285         1.025516
 H         0.739102        -2.269301         0.561391
 H        -3.501499         0.545725        -0.676846
 H        -3.104254         2.891813        -0.134299
 H        -3.014897         1.113627         2.132536
 H        -4.410616         1.741709         1.240487
 H        -2.937002        -1.776332         0.674741
 H        -3.090900        -1.871209         2.373051
 H        -4.442159        -2.527891         1.378605
