19
Iteration:    37charge 0 multiplicity 1
 C         1.403866         0.211633         0.042135
 C         0.021539         0.053293         0.131550
 C        -1.160094        -0.218918         0.012113
 C        -2.581602        -0.279058        -0.025373
 O        -3.128404         0.976580        -0.501843
 C        -3.082437        -0.326498         1.460853
 C        -4.616087        -0.193030         1.585139
 C        -5.485580        -1.382595         1.018504
 O        -5.147239         0.842130         2.019199
 H         1.912689         0.347052         1.001319
 H         1.850418        -0.706453        -0.397085
 H         1.632431         1.120816        -0.586425
 H        -3.011583        -1.179967        -0.576990
 H        -3.757532         0.677679        -1.196109
 H        -2.760037        -1.208814         1.934838
 H        -2.727511         0.618650         1.973429
 H        -5.102855        -2.378552         1.238414
 H        -6.508638        -1.171987         1.293509
 H        -5.397661        -1.393114        -0.098468
