19
Iteration:  1299
 C         1.238842        -0.630535        -0.197407
 C        -0.190857        -0.167902         0.047614
 C        -1.267475         0.410724         0.310082
 C        -2.638604         0.694188         0.314123
 O        -2.768239         2.165654         0.257346
 C        -3.455259         0.183619         1.523646
 C        -4.566959        -0.684470         1.179588
 C        -5.496557        -1.304419         2.243639
 O        -4.747369        -0.931621        -0.007742
 H         1.584394        -0.164809        -1.100876
 H         1.773819        -0.359543         0.697418
 H         1.303447        -1.724802        -0.303398
 H        -3.089539         0.154981        -0.544145
 H        -3.623480         2.280115        -0.307588
 H        -2.864255        -0.581924         2.044441
 H        -3.675258         0.987510         2.273706
 H        -6.212009        -2.017100         1.853519
 H        -4.699861        -1.640256         2.967683
 H        -5.987709        -0.511202         2.873197
