19
Iteration:  4926
 C         0.591712        -0.985370        -1.151548
 C        -0.481084        -0.432369        -0.370402
 C        -1.372957         0.070716         0.243935
 C        -2.677818         0.798985         0.348808
 O        -2.337913         2.233413         0.255740
 C        -3.533911         0.629403         1.646547
 C        -4.387450        -0.639623         1.532344
 C        -5.607767        -0.694016         2.598691
 O        -4.262352        -1.394062         0.609580
 H         1.583339        -0.927407        -0.566858
 H         0.250440        -1.970269        -1.471063
 H         0.756272        -0.333877        -2.042534
 H        -3.180341         0.356597        -0.537302
 H        -1.899137         2.412881        -0.654674
 H        -2.896959         0.702307         2.544472
 H        -4.230202         1.478001         1.649748
 H        -5.060197        -0.561951         3.522925
 H        -6.222618         0.209555         2.598447
 H        -6.103450        -1.615518         2.464167
