19
Iteration:  3569charge 0 multiplicity 1
 C         0.269741        -1.622934        -0.337968
 C        -0.483981        -0.450967        -0.056283
 C        -1.270679         0.436477         0.309750
 C        -2.613528         0.984447         0.179302
 O        -2.658828         2.501747         0.103638
 C        -3.623344         0.869644         1.295165
 C        -4.441025        -0.505391         1.311707
 C        -4.276481        -1.475899         2.576225
 O        -4.902091        -0.986639         0.354088
 H        -0.509882        -2.254289        -0.643911
 H         0.805811        -1.450612        -1.262556
 H         0.897728        -2.002223         0.454290
 H        -2.897589         0.612765        -0.870612
 H        -2.337725         2.843241        -0.764084
 H        -3.144830         1.154784         2.240355
 H        -4.389805         1.602789         1.191886
 H        -3.298570        -1.973779         2.419716
 H        -4.144705        -1.136204         3.585081
 H        -5.007751        -2.267478         2.508815
