19
Iteration:  3377
 C         0.487701        -1.376956        -0.502694
 C        -0.629553        -0.416559        -0.350086
 C        -1.643914         0.193539        -0.118252
 C        -2.821256         1.088105         0.086987
 O        -2.351262         2.405867         0.558919
 C        -3.725990         0.697310         1.330736
 C        -4.309642        -0.697415         1.387686
 C        -4.772948        -0.993307         2.716323
 O        -4.418620        -1.267828         0.312468
 H         0.292136        -2.334827         0.061201
 H         0.651660        -1.406853        -1.596953
 H         1.339583        -0.873715        -0.029862
 H        -3.504278         1.209728        -0.783074
 H        -1.392635         2.486415         0.194842
 H        -3.098599         0.867375         2.225992
 H        -4.602654         1.413972         1.581459
 H        -3.951690        -1.491777         3.242413
 H        -5.093615        -0.167228         3.336044
 H        -5.589927        -1.679041         2.726071
