19
Iteration:  1916charge 0 multiplicity 1
 C         0.528887        -1.183440         0.182258
 C        -0.897040        -0.605827         0.120599
 C        -1.752934         0.228501         0.156792
 C        -2.833173         1.158157         0.243414
 O        -2.299507         2.528506         0.600862
 C        -3.904414         0.778088         1.228323
 C        -4.251598        -0.658726         0.902566
 C        -3.836436        -1.703046         2.058918
 O        -5.039895        -0.918573        -0.003498
 H         1.269547        -0.389190        -0.066045
 H         0.766971        -1.485138         1.208591
 H         0.605557        -1.946911        -0.589944
 H        -3.314364         1.325542        -0.781865
 H        -1.355215         2.555980         0.461236
 H        -3.484538         0.885727         2.245200
 H        -4.950441         1.136779         1.075369
 H        -4.557151        -1.533945         2.915167
 H        -3.578254        -2.785615         2.070566
 H        -2.899306        -1.498003         2.692198
