19
Iteration:  4183charge 0 multiplicity 1
 C         0.886648        -0.967926         0.324544
 C        -0.379654        -0.403411        -0.013783
 C        -1.525347        -0.038022        -0.184927
 C        -2.770025         0.648313        -0.054941
 O        -2.623860         2.074494        -0.081611
 C        -3.543853         0.641407         1.449019
 C        -4.444204        -0.432431         1.383608
 C        -4.020429        -1.800860         1.580874
 O        -5.673009        -0.096114         1.108917
 H         1.859843        -0.687498        -0.186157
 H         1.055552        -0.749342         1.385410
 H         0.874329        -2.017930         0.193364
 H        -3.624900         0.202241        -0.735184
 H        -1.648482         2.251311         0.109006
 H        -2.673082         0.734859         2.070469
 H        -4.089433         1.541046         1.403180
 H        -3.048382        -2.042868         1.049683
 H        -3.850256        -1.922401         2.722197
 H        -4.855790        -2.523781         1.261326
