19
Iteration:   584charge 0 multiplicity 1
 C         1.247835        -0.509504        -0.629998
 C        -0.104577        -0.070866        -0.197109
 C        -1.226482         0.168187         0.265837
 C        -2.588747         0.694168         0.485837
 O        -2.576389         2.110961         0.869923
 C        -3.274216        -0.150224         1.610658
 C        -4.632514        -0.671806         1.130293
 C        -6.023399        -0.716443         2.047541
 O        -4.699870        -1.196441         0.000396
 H         2.108032         0.139228        -0.247160
 H         1.464982        -1.519110        -0.206576
 H         1.291872        -0.662934        -1.726804
 H        -3.125947         0.737662        -0.480374
 H        -3.531149         2.332832         0.887785
 H        -2.630939        -1.001913         1.793452
 H        -3.205280         0.620284         2.443304
 H        -6.467569         0.335742         1.858183
 H        -6.591024        -1.580271         1.593887
 H        -5.918833        -0.794164         3.124700
