19
Iteration:  4002charge 0 multiplicity 1
 C         0.665658        -1.084202         0.326441
 C        -0.652544        -0.518441         0.203013
 C        -1.753817        -0.087469        -0.089012
 C        -2.797595         0.906957        -0.149419
 O        -2.271174         2.218627        -0.008238
 C        -3.636542         0.831425         1.196853
 C        -4.394049        -0.488715         1.313445
 C        -3.703112        -1.792402         1.574202
 O        -5.600506        -0.407183         1.200131
 H         1.072397        -1.050918        -0.682521
 H         1.355102        -0.490356         0.989811
 H         0.684659        -2.202502         0.610034
 H        -3.469512         0.775811        -0.905882
 H        -2.932900         2.815772        -0.399285
 H        -2.816187         0.949396         1.932937
 H        -4.379107         1.640866         1.349382
 H        -2.975003        -2.184276         0.794845
 H        -3.104694        -1.716082         2.487846
 H        -4.522772        -2.533172         1.780866
