19
Iteration:   441
 C         1.150873        -0.668638        -0.191499
 C        -0.120724        -0.115706        -0.080272
 C        -1.252335         0.261665         0.037522
 C        -2.640422         0.709466         0.300762
 O        -2.672385         2.157116         0.545146
 C        -3.303684        -0.025494         1.418020
 C        -4.670641        -0.647020         1.114834
 C        -5.310817        -1.355889         2.351274
 O        -5.079372        -0.571819        -0.048947
 H         1.831475        -0.250817         0.549274
 H         0.970068        -1.714993         0.092644
 H         1.447385        -0.722330        -1.247794
 H        -3.228051         0.396519        -0.573385
 H        -3.121103         2.259600         1.335798
 H        -2.864354        -0.939906         1.670894
 H        -3.409340         0.635938         2.302104
 H        -5.358987        -0.659787         3.224695
 H        -6.167804        -1.959218         2.080129
 H        -4.571461        -2.112682         2.713544
