19
Iteration:   488charge 0 multiplicity 1
 C         1.166369        -0.684513        -0.354049
 C        -0.150434        -0.144343        -0.068068
 C        -1.204767         0.418237         0.048186
 C        -2.520155         0.755737         0.377305
 O        -2.631093         2.172693         0.731113
 C        -3.258226        -0.052595         1.549272
 C        -4.692656        -0.652902         1.097332
 C        -5.556580        -1.138005         2.229097
 O        -5.041779        -0.953018        -0.028017
 H         1.849282        -0.054039         0.237950
 H         1.350195        -1.706556        -0.067269
 H         1.309783        -0.584907        -1.397848
 H        -3.201171         0.644119        -0.506229
 H        -2.600791         2.673669        -0.118102
 H        -2.862694        -1.083096         1.808095
 H        -3.575039         0.537234         2.347424
 H        -5.650370        -0.249848         2.890602
 H        -6.388965        -1.608421         1.691572
 H        -5.135964        -1.922169         2.830332
