19
Iteration:  4220charge 0 multiplicity 1
 C         0.808386        -0.740186         0.247336
 C        -0.591387        -0.549958         0.142054
 C        -1.683806        -0.086144        -0.090773
 C        -2.789947         0.891387         0.001345
 O        -2.195101         2.182291        -0.370549
 C        -3.420304         0.587174         1.475409
 C        -4.491109        -0.547065         1.361930
 C        -4.104568        -1.928037         1.612051
 O        -5.719833        -0.239196         1.143967
 H         1.364277        -0.033243        -0.288044
 H         0.984946        -0.646514         1.335914
 H         1.054693        -1.827736         0.098481
 H        -3.494461         0.809317        -0.706735
 H        -1.496893         2.360984         0.243831
 H        -2.819226         0.171774         2.302867
 H        -3.924009         1.496388         1.931033
 H        -3.182522        -2.195476         1.114111
 H        -4.006701        -1.895929         2.697369
 H        -4.872809        -2.656747         1.417236
