19
Iteration:   149
 C         1.545153         0.077971         0.078621
 C         0.059068        -0.019090         0.076925
 C        -1.165980        -0.040681         0.043188
 C        -2.647784         0.020102        -0.053489
 O        -3.065874         1.357580        -0.327899
 C        -3.234879        -0.537702         1.312889
 C        -4.665044        -0.323544         1.456667
 C        -5.486379        -1.643810         1.576052
 O        -5.233849         0.777066         1.456904
 H         2.050796         0.369646         1.070427
 H         1.889924        -0.971498        -0.181994
 H         1.907521         0.791756        -0.705988
 H        -3.080186        -0.592602        -0.925837
 H        -2.216707         1.759948        -0.381869
 H        -2.950304        -1.677272         1.363695
 H        -2.824286        -0.001580         2.159603
 H        -5.506886        -1.818476         2.746480
 H        -6.578677        -1.595799         1.255566
 H        -5.041847        -2.602635         1.181916
