19
Iteration:  3653charge 0 multiplicity 1
 C         0.455574        -1.162268        -0.042838
 C        -0.979320        -0.748184        -0.103214
 C        -1.900901         0.046432        -0.273586
 C        -2.811581         1.112412         0.147518
 O        -2.132638         2.334056         0.033960
 C        -3.695362         0.913277         1.397748
 C        -4.298328        -0.491423         1.395509
 C        -3.958939        -1.527164         2.479240
 O        -4.997861        -0.885596         0.396390
 H         0.783744        -2.112344        -0.480846
 H         1.007841        -0.266222        -0.408554
 H         0.733912        -1.347301         1.077081
 H        -3.499244         1.284136        -0.641871
 H        -1.626807         2.540677         0.865412
 H        -3.117380         0.954878         2.376569
 H        -4.541363         1.659756         1.384302
 H        -2.865563        -1.760988         2.576879
 H        -4.295477        -1.208722         3.480533
 H        -4.507385        -2.457158         2.370991
