19
Iteration:  2115charge 0 multiplicity 1
 C         0.490360        -1.163464         0.384615
 C        -0.705871        -0.500318         0.169491
 C        -1.693731         0.179895         0.079802
 C        -2.752474         1.117778         0.110335
 O        -2.318711         2.467119         0.351847
 C        -3.800332         0.802340         1.216660
 C        -4.367937        -0.621187         1.058832
 C        -3.591719        -1.904046         1.623402
 O        -5.513937        -0.693948         0.537693
 H         1.241616        -0.442152         0.565833
 H         0.405636        -1.942998         1.133542
 H         0.858982        -1.558043        -0.566521
 H        -3.330059         0.921566        -0.764674
 H        -1.336661         2.295708         0.305588
 H        -3.162637         0.741764         2.095277
 H        -4.574932         1.573151         1.288175
 H        -2.464237        -1.770551         1.690357
 H        -3.824537        -2.054819         2.726886
 H        -3.736884        -2.865654         1.094037
