19
Iteration:   139charge 0 multiplicity 1
 C         1.515613         0.107538         0.085825
 C         0.086546         0.045626         0.100708
 C        -1.119624        -0.127958        -0.094334
 C        -2.577080        -0.002089         0.014089
 O        -3.058300         1.333194        -0.394387
 C        -3.208320        -0.531206         1.330690
 C        -4.728079        -0.305179         1.451113
 C        -5.511248        -1.623456         1.582295
 O        -5.236452         0.780090         1.503946
 H         1.948684         0.322601         1.121698
 H         1.900359        -0.908948        -0.232792
 H         1.905253         0.746560        -0.732216
 H        -3.035724        -0.746530        -0.757542
 H        -2.629565         1.953760         0.224839
 H        -3.071822        -1.696989         1.473749
 H        -2.723264        -0.140570         2.215091
 H        -5.699260        -1.997437         2.678403
 H        -6.571123        -1.428175         1.197119
 H        -5.092460        -2.461543         0.946232
