19
Iteration:   373charge 0 multiplicity 1
 C         1.307919        -0.664365        -0.046893
 C        -0.083607        -0.215816        -0.041191
 C        -1.177921         0.346127         0.014288
 C        -2.592043         0.611565         0.151309
 O        -2.802246         2.183906         0.253979
 C        -3.289207        -0.086463         1.419534
 C        -4.678091        -0.600188         1.214005
 C        -5.183974        -1.674668         2.150793
 O        -5.422315        -0.204056         0.343388
 H         1.814570        -0.230579         0.799879
 H         1.338738        -1.766451         0.087177
 H         1.769028        -0.588238        -1.060961
 H        -3.127206         0.319530        -0.738098
 H        -2.333052         2.182490         1.206291
 H        -2.574127        -0.714469         1.750767
 H        -3.396793         0.665237         2.255980
 H        -5.196226        -1.320453         3.169214
 H        -6.161230        -2.059575         1.802066
 H        -4.472970        -2.548859         2.327819
