19
Iteration:   907charge 0 multiplicity 1
 C         1.447543         0.207079         0.276928
 C         0.045007         0.001765         0.066616
 C        -1.157242         0.023149        -0.107285
 C        -2.633346         0.233412         0.065636
 O        -2.744141         1.578400         0.682514
 C        -3.292122        -0.870035         0.771042
 C        -4.717769        -0.656085         1.051134
 C        -5.153008        -0.115901         2.339238
 O        -5.633527        -0.802637         0.240940
 H         1.816732         1.186562        -0.037475
 H         1.581382         0.068941         1.379994
 H         2.098075        -0.568039        -0.263456
 H        -2.961743         0.284997        -1.042316
 H        -3.694387         1.633953         1.131666
 H        -3.033644        -1.701010         0.177341
 H        -2.672735        -1.097999         1.679799
 H        -5.201252         0.953111         2.385884
 H        -6.128048        -0.517133         2.507829
 H        -4.525370        -0.385256         3.253719
