19
Iteration:  2965charge 0 multiplicity 1
 C         0.662166        -1.240264        -0.591476
 C        -0.424650        -0.326586        -0.314748
 C        -1.440916         0.305441        -0.027545
 C        -2.711584         0.960757         0.198871
 O        -2.494620         2.374827         0.258078
 C        -3.416600         0.449929         1.513760
 C        -4.456799        -0.654798         1.376817
 C        -4.983140        -1.060348         2.696073
 O        -4.815032        -1.079852         0.346253
 H         0.727459        -1.818329         0.370589
 H         0.407997        -1.936058        -1.436243
 H         1.706385        -0.869736        -0.830515
 H        -3.429183         0.757444        -0.661842
 H        -1.670958         2.480224         0.671303
 H        -2.680972         0.114261         2.277481
 H        -3.719448         1.364073         2.081635
 H        -4.849903        -0.533547         3.618577
 H        -6.042731        -1.299995         2.553938
 H        -4.505617        -2.003474         2.964947
