19
Iteration:  3076
 C         0.672317        -1.102972        -0.701794
 C        -0.498697        -0.379969        -0.214858
 C        -1.596480         0.080897        -0.029417
 C        -2.762671         0.847126         0.270608
 O        -2.487536         2.269393         0.227193
 C        -3.402432         0.517186         1.581774
 C        -4.364163        -0.586549         1.468738
 C        -5.124839        -0.960935         2.707488
 O        -4.537441        -1.070218         0.288285
 H         1.057234        -1.987811        -0.163253
 H         0.309210        -1.301721        -1.738725
 H         1.498362        -0.350620        -0.934217
 H        -3.504696         0.621467        -0.563789
 H        -1.605729         2.451602         0.731401
 H        -2.532146         0.253987         2.210336
 H        -3.964252         1.449334         1.910989
 H        -4.950825        -0.308952         3.550899
 H        -6.188487        -0.798746         2.500587
 H        -5.054689        -2.022452         2.765935
