19
Iteration:   956charge 0 multiplicity 1
 C         1.432963         0.246150         0.477845
 C         0.018091         0.129509         0.055399
 C        -1.147429        -0.072868        -0.210422
 C        -2.592197         0.179623         0.002025
 O        -2.883205         1.459718         0.483551
 C        -3.296514        -0.935502         0.815905
 C        -4.775270        -0.510661         1.059570
 C        -4.993331        -0.246825         2.487626
 O        -5.613549        -0.618429         0.198217
 H         1.763965         1.218034         0.031241
 H         1.632388         0.376590         1.537447
 H         2.062845        -0.474390         0.013880
 H        -2.990377         0.213373        -1.066644
 H        -2.978655         1.439827         1.399427
 H        -3.449000        -1.844619         0.131455
 H        -2.723778        -1.410672         1.617847
 H        -4.816328         0.909122         2.656597
 H        -6.092682        -0.469788         2.689699
 H        -4.517082        -0.734805         3.321605
