19
Iteration:  4015charge 0 multiplicity 1
 C         0.789621        -1.137876         0.255654
 C        -0.613824        -0.612635         0.151886
 C        -1.719061        -0.073767         0.063525
 C        -2.878768         0.902266        -0.027107
 O        -2.328017         2.222235        -0.120140
 C        -3.631978         0.869971         1.266004
 C        -4.428635        -0.402202         1.358964
 C        -3.711646        -1.768284         1.547802
 O        -5.610193        -0.433134         1.153765
 H         1.398232        -1.098518        -0.640571
 H         1.306684        -0.536168         1.074474
 H         0.759310        -2.222229         0.682495
 H        -3.390301         0.738291        -0.916189
 H        -3.111902         2.843008        -0.249528
 H        -3.025579         1.101593         2.143812
 H        -4.434398         1.638090         1.120318
 H        -3.021044        -1.716848         0.575375
 H        -3.014391        -1.918839         2.430611
 H        -4.424558        -2.592151         1.375282
