19
Iteration:  1539charge 0 multiplicity 1
 C         0.832545        -0.917250        -0.252591
 C        -0.467749        -0.312244         0.187112
 C        -1.625317         0.107983         0.383803
 C        -2.833524         1.072766         0.358374
 O        -2.445243         2.478932         0.601849
 C        -3.896760         0.677778         1.268080
 C        -4.430431        -0.748782         0.985890
 C        -4.803358        -1.570295         2.260875
 O        -4.511241        -1.159502        -0.140281
 H         1.379479        -0.608972        -1.146516
 H         1.490739        -0.684934         0.619156
 H         0.561312        -2.027470        -0.343456
 H        -3.290840         1.118977        -0.695400
 H        -1.658837         2.602509        -0.067258
 H        -3.393002         0.678776         2.258432
 H        -4.628936         1.507491         1.181937
 H        -5.268836        -0.933068         3.026086
 H        -5.401152        -2.436887         2.032575
 H        -4.053998        -1.870064         2.961436
