19
Iteration:  2435charge 0 multiplicity 1
 C         0.439391        -1.347250         0.151903
 C        -0.708201        -0.486345        -0.006665
 C        -1.637521         0.264477         0.022083
 C        -2.789009         1.143209         0.138704
 O        -2.434932         2.589996         0.191670
 C        -3.634538         0.754747         1.370515
 C        -4.330558        -0.631348         1.169338
 C        -3.851436        -1.777169         2.066831
 O        -5.253394        -0.829539         0.410653
 H         0.952679        -1.131123         1.082945
 H         0.053530        -2.376285         0.237612
 H         1.189789        -1.242903        -0.633908
 H        -3.415532         0.962069        -0.735553
 H        -1.500736         2.670033         0.413311
 H        -3.072237         0.753005         2.317106
 H        -4.443292         1.453622         1.411289
 H        -3.318870        -1.464104         3.015306
 H        -4.669512        -2.480698         2.268329
 H        -2.915971        -2.154893         1.538905
