19
Iteration:  2335charge 0 multiplicity 1
 C         0.645472        -1.115204         0.210068
 C        -0.665707        -0.595088         0.101681
 C        -1.565281         0.262558         0.044887
 C        -2.780115         1.010361         0.131768
 O        -2.589202         2.421155         0.089844
 C        -3.525702         0.749912         1.460332
 C        -4.382256        -0.600708         1.185351
 C        -3.931896        -1.915987         1.849559
 O        -5.367476        -0.540801         0.473538
 H         1.140876        -0.630585         0.998399
 H         0.555520        -2.149167         0.585631
 H         1.199355        -1.115102        -0.730950
 H        -3.320177         0.613742        -0.740091
 H        -1.781370         2.521366         0.520971
 H        -2.817677         0.546113         2.248174
 H        -3.891299         1.711952         1.789826
 H        -3.390802        -2.484689         1.076739
 H        -3.367427        -1.967830         2.790919
 H        -4.858406        -2.476985         2.148577
