19
Iteration:  4624charge 0 multiplicity 1
 C         0.252907        -1.379072        -0.617336
 C        -0.614022        -0.563245         0.159334
 C        -1.475980         0.283370         0.282059
 C        -2.778755         1.024261         0.158816
 O        -2.385532         2.508812         0.072611
 C        -3.737052         0.863417         1.352262
 C        -4.298434        -0.551789         1.365831
 C        -4.447570        -1.362000         2.621983
 O        -4.651682        -1.119777         0.333893
 H         1.335566        -1.270801        -0.668459
 H         0.058749        -2.477362        -0.381091
 H        -0.113968        -1.222273        -1.719815
 H        -3.370585         0.576379        -0.592069
 H        -1.361811         2.465411         0.234202
 H        -3.255302         1.042403         2.323349
 H        -4.467757         1.712079         1.194107
 H        -3.460292        -1.553873         3.107391
 H        -5.070395        -0.721226         3.281834
 H        -4.774556        -2.368639         2.355747
