19
Iteration:  1882charge 0 multiplicity 1
 C         0.525566        -1.122934         0.062044
 C        -0.739141        -0.412888         0.177637
 C        -1.814056         0.158752         0.153607
 C        -2.827257         1.157335         0.251783
 O        -2.197234         2.451078         0.657970
 C        -3.967265         0.827019         1.188412
 C        -4.443287        -0.557908         0.965508
 C        -3.936849        -1.641402         2.086138
 O        -4.912411        -1.142373        -0.005521
 H         1.378795        -0.531673        -0.381260
 H         0.851450        -1.673450         0.925267
 H         0.297377        -1.978711        -0.511644
 H        -3.287618         1.213355        -0.801660
 H        -1.397527         2.161372         0.995499
 H        -3.695477         0.916737         2.242267
 H        -4.773073         1.554412         1.081926
 H        -4.147580        -1.250676         3.095696
 H        -4.444998        -2.641916         1.981747
 H        -2.880052        -1.420824         1.820487
