19
Iteration:  1463
 C         0.873836        -0.824742        -0.084029
 C        -0.482178        -0.246679         0.140112
 C        -1.613355         0.218598         0.071445
 C        -2.811248         0.987603         0.327008
 O        -2.472601         2.497890         0.392001
 C        -3.630776         0.446997         1.431142
 C        -4.465500        -0.769749         1.060356
 C        -5.064944        -1.480925         2.241198
 O        -4.453947        -1.143009        -0.065709
 H         1.259985        -0.412044        -1.045760
 H         1.595977        -0.627160         0.787795
 H         0.904797        -1.999285        -0.191124
 H        -3.506234         0.752989        -0.510832
 H        -2.218854         2.750093         1.245520
 H        -2.974394         0.095766         2.262830
 H        -4.365840         1.216907         1.834540
 H        -4.505649        -1.375370         3.202239
 H        -6.137552        -1.325786         2.452040
 H        -5.154109        -2.544474         1.988400
