19
Iteration:  2996
 C         0.622086        -1.295936        -0.737785
 C        -0.230583        -0.203257        -0.330053
 C        -1.362562         0.218167        -0.013975
 C        -2.640785         0.866404         0.279171
 O        -2.664366         2.302552         0.195116
 C        -3.432210         0.528557         1.656114
 C        -4.476230        -0.559984         1.491756
 C        -5.114266        -1.054068         2.695957
 O        -4.649070        -1.030432         0.254809
 H         0.583655        -1.860427         0.223993
 H         0.073179        -1.974204        -1.374223
 H         1.681232        -1.128603        -0.817266
 H        -3.476982         0.508136        -0.464498
 H        -1.922056         2.599920         0.864858
 H        -2.842750         0.138613         2.567854
 H        -3.933696         1.458751         1.735891
 H        -4.756319        -0.595530         3.579713
 H        -6.183333        -1.211459         2.606429
 H        -4.852002        -2.101030         2.880751
