19
Iteration:  4573
 C         0.318482        -1.567244        -0.192962
 C        -0.806962        -0.620125        -0.208307
 C        -1.646856         0.262287         0.089870
 C        -2.888136         1.188668         0.174457
 O        -2.464099         2.478456         0.064110
 C        -3.621780         0.788119         1.470452
 C        -4.174590        -0.572088         1.317732
 C        -4.099088        -1.423557         2.511934
 O        -4.799886        -0.888225         0.260313
 H         1.166071        -0.939036         0.159389
 H         0.250055        -2.377514         0.525985
 H         0.699300        -1.978674        -1.099631
 H        -3.582239         0.891476        -0.660292
 H        -2.172774         2.910746         0.900425
 H        -2.933786         0.876656         2.330494
 H        -4.453032         1.394150         1.752886
 H        -2.985693        -1.585277         2.708792
 H        -4.411820        -0.763413         3.319857
 H        -4.601398        -2.355841         2.404065
