19
Iteration:  3440charge 0 multiplicity 1
 C         0.318777        -1.129056        -0.141723
 C        -0.981938        -0.627136        -0.396308
 C        -1.858017         0.145768        -0.179259
 C        -2.849699         1.248780         0.134560
 O        -1.979995         2.422477         0.302550
 C        -3.567867         0.846182         1.477643
 C        -4.262124        -0.625951         1.327887
 C        -4.618075        -1.343180         2.679056
 O        -4.552306        -1.288904         0.269416
 H         0.493150        -2.213017         0.203064
 H         0.953087        -1.094540        -1.086052
 H         0.818441        -0.583139         0.677777
 H        -3.519101         1.402410        -0.688904
 H        -1.640769         2.776875        -0.583137
 H        -2.856580         0.609336         2.253497
 H        -4.265863         1.657990         1.875452
 H        -3.595394        -1.501730         3.145860
 H        -5.418454        -0.803122         3.293698
 H        -4.883487        -2.402695         2.435301
