19
Iteration:   537
 C         1.135984        -0.561491        -0.507588
 C        -0.163924        -0.116279        -0.108067
 C        -1.288499         0.192268         0.232672
 C        -2.584008         0.693392         0.480305
 O        -2.711876         2.109338         0.742020
 C        -3.259071        -0.060609         1.581447
 C        -4.606652        -0.722826         1.081185
 C        -5.670624        -0.820142         2.100445
 O        -4.819316        -1.061849        -0.083599
 H         1.903352         0.057580        -0.034536
 H         1.289800        -1.610918        -0.148867
 H         1.183460        -0.593728        -1.638725
 H        -3.095881         0.666307        -0.489622
 H        -2.146110         2.332959         1.584275
 H        -2.477061        -0.793116         1.882063
 H        -3.607939         0.667366         2.391443
 H        -5.949073         0.177459         2.421597
 H        -6.467220        -1.443045         1.709957
 H        -5.162354        -1.305487         2.970644
