19
Iteration:  1075charge 0 multiplicity 1
 C         1.590262        -0.002055         0.241329
 C         0.062256         0.123560         0.323000
 C        -1.104129         0.308267         0.017356
 C        -2.568882         0.160999        -0.020664
 O        -3.191480         1.560591         0.243916
 C        -3.178726        -0.887573         0.943348
 C        -4.684474        -0.561526         1.149855
 C        -5.244096        -0.585295         2.501424
 O        -5.442416        -0.380536         0.230724
 H         2.098569         0.717746        -0.476169
 H         2.002635         0.200781         1.232147
 H         1.792232        -1.022103        -0.034885
 H        -2.918388        -0.036916        -1.079711
 H        -3.873434         1.509127        -0.436361
 H        -3.131227        -1.941835         0.545852
 H        -2.510872        -0.862852         1.789963
 H        -4.557524        -0.141525         3.311216
 H        -6.256754        -0.156241         2.493458
 H        -5.268836        -1.643831         2.701737
