19
Iteration:  4405
 C         0.423850        -1.614030         0.073375
 C        -0.558281        -0.530475         0.260140
 C        -1.487374         0.253836         0.136103
 C        -2.696780         1.046334         0.150262
 O        -2.470346         2.495866        -0.033064
 C        -3.763737         0.867864         1.262046
 C        -4.482876        -0.516397         1.252275
 C        -3.573430        -1.537247         1.756466
 O        -5.557083        -0.748641         0.840444
 H         1.324376        -1.098742        -0.156260
 H         0.687404        -2.360492         0.854052
 H         0.202308        -2.224394        -0.863984
 H        -3.254933         0.768444        -0.873760
 H        -1.598892         2.539784        -0.472664
 H        -3.331793         0.887828         2.216429
 H        -4.480090         1.663876         1.319439
 H        -2.631804        -1.743043         1.289754
 H        -3.033897        -1.305167         2.697998
 H        -4.087728        -2.519948         1.912068
