19
Iteration:  3027
 C         0.636624        -1.200893        -0.785665
 C        -0.526631        -0.540712        -0.229054
 C        -1.296549         0.343321         0.188901
 C        -2.623315         0.962813         0.269002
 O        -2.657894         2.402628         0.054165
 C        -3.253877         0.496943         1.664908
 C        -4.344103        -0.672830         1.438792
 C        -5.219085        -1.101288         2.632530
 O        -4.689708        -1.044774         0.388355
 H         0.941431        -1.934495        -0.042025
 H         0.446910        -1.703030        -1.726549
 H         1.449759        -0.520092        -0.897639
 H        -3.324530         0.488145        -0.454463
 H        -1.911011         2.741324         0.476954
 H        -2.518185         0.173990         2.485897
 H        -3.807288         1.386814         1.940436
 H        -5.102735        -0.447033         3.502161
 H        -6.265054        -0.967730         2.277338
 H        -5.086761        -2.212107         2.711784
