19
Iteration:  4115
 C         0.751641        -1.223621         0.045712
 C        -0.338309        -0.364586         0.457724
 C        -1.255463         0.394147         0.227442
 C        -2.623935         0.824286         0.038284
 O        -2.650618         2.212506        -0.356528
 C        -3.494053         0.675398         1.318018
 C        -4.545164        -0.537314         1.263631
 C        -4.088737        -1.981891         1.620212
 O        -5.660200        -0.245224         1.196135
 H         1.221308        -1.088076        -0.967537
 H         1.502296        -1.266006         0.856076
 H         0.316231        -2.247714        -0.100995
 H        -2.986690         0.307361        -0.962354
 H        -2.923157         2.218932        -1.224036
 H        -3.039309         0.640997         2.317852
 H        -4.209793         1.501273         1.392614
 H        -3.228730        -2.363345         0.929021
 H        -3.753184        -1.944861         2.710026
 H        -5.095290        -2.457270         1.503308
