19
Iteration:  2155
 C         0.723810        -1.134568         0.285560
 C        -0.568870        -0.506759         0.151404
 C        -1.594696         0.174893        -0.109438
 C        -2.756662         1.057209         0.107108
 O        -2.216150         2.410963         0.439105
 C        -3.881480         0.864254         1.125461
 C        -4.514126        -0.621376         1.075278
 C        -3.767457        -1.802051         1.752155
 O        -5.672797        -0.831068         0.644980
 H         1.406401        -0.283898         0.695635
 H         0.712809        -1.954770         1.039445
 H         1.218747        -1.397598        -0.676116
 H        -3.082819         1.374851        -0.972042
 H        -1.336021         2.398777         0.821931
 H        -3.401501         1.026147         2.124221
 H        -4.623048         1.668901         1.018096
 H        -2.893889        -1.527476         2.409398
 H        -4.586434        -2.449365         2.123639
 H        -3.185780        -2.326786         0.942066
