19
Iteration:  3562
 C         0.269212        -1.610265        -0.352657
 C        -0.540486        -0.441658        -0.068917
 C        -1.250458         0.443906         0.357931
 C        -2.576223         1.080509         0.173871
 O        -2.662349         2.532786         0.079938
 C        -3.599811         0.792468         1.274586
 C        -4.364611        -0.525022         1.355006
 C        -4.313402        -1.510660         2.566535
 O        -4.930589        -1.002157         0.363022
 H        -0.486033        -2.481570        -0.519393
 H         0.924467        -1.564880        -1.257820
 H         0.870339        -2.080075         0.426016
 H        -3.026752         0.632340        -0.750218
 H        -2.388703         2.858734        -0.859618
 H        -3.060718         1.074722         2.170745
 H        -4.323068         1.612036         1.094390
 H        -3.287033        -1.912144         2.406967
 H        -4.386874        -0.885594         3.552026
 H        -5.111582        -2.298267         2.491156
