19
Iteration:   622
 C         1.217141        -0.458424        -0.654897
 C        -0.091965        -0.048298        -0.113533
 C        -1.215095         0.274789         0.236357
 C        -2.610568         0.631761         0.536286
 O        -2.620605         2.025394         0.900577
 C        -3.331737        -0.194352         1.634686
 C        -4.719331        -0.765568         1.070755
 C        -5.912393        -0.495765         2.007886
 O        -4.688488        -1.317878        -0.046269
 H         1.915204         0.330001        -0.492675
 H         1.626297        -1.387237        -0.250941
 H         1.193321        -0.474772        -1.747829
 H        -3.194668         0.421101        -0.400077
 H        -1.738156         2.301911         0.963442
 H        -2.676110        -0.994174         2.045741
 H        -3.599574         0.342980         2.491158
 H        -6.329725         0.415885         1.557906
 H        -6.798785        -1.131547         1.971433
 H        -5.745500        -0.321669         3.102997
