19
Iteration:  3069charge 0 multiplicity 1
 C         0.682318        -1.066629        -0.770643
 C        -0.503397        -0.493985        -0.138049
 C        -1.562779         0.118353         0.013995
 C        -2.787611         0.848417         0.263073
 O        -2.526840         2.324969         0.184421
 C        -3.365191         0.514420         1.633963
 C        -4.412063        -0.546677         1.415094
 C        -5.139425        -0.967025         2.664857
 O        -4.518477        -1.078096         0.294391
 H         1.023191        -1.956278        -0.224194
 H         0.328732        -1.518207        -1.721640
 H         1.537442        -0.396809        -0.816383
 H        -3.444105         0.673621        -0.519374
 H        -1.648504         2.430663         0.649031
 H        -2.518269         0.096093         2.152988
 H        -3.769488         1.397950         2.176958
 H        -4.740981        -0.379266         3.542533
 H        -6.252381        -0.938587         2.685906
 H        -4.995547        -2.065984         2.929301
