19
Iteration:  3291
 C         0.353839        -1.315866        -0.864692
 C        -0.395797        -0.331651        -0.038555
 C        -1.515642         0.107088         0.181288
 C        -2.800310         0.954005         0.300926
 O        -2.601391         2.357508         0.327434
 C        -3.484030         0.681709         1.562166
 C        -4.351848        -0.538754         1.346513
 C        -5.066898        -0.903393         2.512356
 O        -4.211309        -1.276653         0.359532
 H         0.408156        -2.307194        -0.366858
 H        -0.014692        -1.504814        -1.859957
 H         1.399686        -1.150218        -1.032883
 H        -3.434235         0.561582        -0.527208
 H        -2.021045         2.716083        -0.363725
 H        -2.818476         0.266395         2.333428
 H        -3.992371         1.556502         1.833832
 H        -4.429457        -1.573398         3.129302
 H        -5.274770        -0.049184         3.192210
 H        -5.939129        -1.471784         2.193428
