19
Iteration:  4848charge 0 multiplicity 1
 C         0.666648        -1.162478        -0.932917
 C        -0.497949        -0.421463        -0.395781
 C        -1.481820         0.229410        -0.041918
 C        -2.751970         0.976044         0.232810
 O        -2.542576         2.369956         0.394997
 C        -3.331693         0.425812         1.691437
 C        -4.395467        -0.702032         1.440913
 C        -5.338007        -0.532525         2.559747
 O        -4.435559        -1.527057         0.576035
 H         1.644902        -1.018604        -0.318742
 H         0.502079        -2.255474        -0.952498
 H         0.810875        -0.891141        -1.974519
 H        -3.483798         0.773166        -0.515929
 H        -1.555677         2.451140         0.451760
 H        -2.482179         0.177301         2.378632
 H        -3.846678         1.292193         1.994849
 H        -4.684598        -0.366515         3.385129
 H        -6.059537         0.215112         2.311439
 H        -5.889916        -1.458200         2.573514
