19
Iteration:  3036
 C         0.626297        -1.112658        -0.767497
 C        -0.573097        -0.641311        -0.177428
 C        -1.301268         0.274155         0.143447
 C        -2.603174         0.928364         0.347943
 O        -2.658705         2.466631         0.028697
 C        -3.273051         0.489684         1.621556
 C        -4.322491        -0.579054         1.488935
 C        -5.232282        -1.081690         2.611729
 O        -4.683546        -1.104293         0.337302
 H         0.966118        -1.953257        -0.132694
 H         0.425003        -1.580923        -1.759363
 H         1.444670        -0.430483        -0.998082
 H        -3.147795         0.579227        -0.467462
 H        -1.881389         2.825032         0.358090
 H        -2.520654         0.061498         2.329381
 H        -3.716446         1.258235         2.316060
 H        -5.009417        -0.617952         3.645765
 H        -6.303849        -0.933187         2.336132
 H        -4.897438        -2.156056         2.796949
