19
Iteration:  1230
 C         1.397934        -0.276330        -0.140628
 C         0.054031        -0.076473         0.120592
 C        -1.136518         0.119875         0.295874
 C        -2.597212         0.499304         0.204573
 O        -2.776200         1.969683         0.195744
 C        -3.468472         0.102161         1.393119
 C        -4.806413        -0.639026         1.170937
 C        -5.512496        -1.266627         2.401931
 O        -5.152655        -0.784892         0.021171
 H         1.513116         0.273705        -1.111926
 H         2.161500         0.057982         0.598015
 H         1.684069        -1.319400        -0.449701
 H        -3.039712         0.124549        -0.770076
 H        -1.837553         2.315186         0.058509
 H        -2.659476        -0.425826         1.986544
 H        -3.556368         1.008015         2.039843
 H        -6.573734        -1.012671         2.632316
 H        -5.296114        -2.346389         2.326372
 H        -4.993410        -1.013918         3.363691
