19
Iteration:  1224
 C         1.439200        -0.250156        -0.124166
 C         0.044789        -0.094996         0.106889
 C        -1.143434         0.071137         0.277864
 C        -2.574988         0.553275         0.212878
 O        -2.777662         1.963157         0.158270
 C        -3.461982         0.085019         1.421790
 C        -4.810001        -0.661342         1.171417
 C        -5.459397        -1.251742         2.409703
 O        -5.195427        -0.765630         0.020859
 H         1.449527         0.362153        -1.027839
 H         2.101807         0.151347         0.634356
 H         1.677921        -1.267018        -0.417165
 H        -3.112854         0.045667        -0.618766
 H        -1.900163         2.253355         0.225905
 H        -2.829083        -0.646227         1.928563
 H        -3.656251         0.894159         2.151518
 H        -6.473011        -0.872312         2.417783
 H        -5.503943        -2.376395         2.314916
 H        -4.880835        -0.946380         3.306903
