19
Iteration:   309
 C         1.378544        -0.505882        -0.029276
 C        -0.069904        -0.219500         0.124093
 C        -1.197615         0.237824         0.091131
 C        -2.632323         0.474468         0.113818
 O        -2.890631         1.920316         0.092082
 C        -3.188737        -0.038001         1.408249
 C        -4.691805        -0.547061         1.212887
 C        -5.131052        -1.871331         1.975782
 O        -5.503188         0.184347         0.653669
 H         1.998159        -0.120247         0.752971
 H         1.545171        -1.585232        -0.048323
 H         1.774022        -0.161181        -0.997735
 H        -3.078329        -0.032495        -0.809404
 H        -2.240089         2.420097        -0.563255
 H        -2.621161        -0.813511         1.837152
 H        -3.183537         0.781319         2.202770
 H        -4.664481        -1.842263         2.950878
 H        -6.208857        -1.698136         2.124141
 H        -4.928099        -2.778423         1.380410
