19
Iteration:  2530charge 0 multiplicity 1
 C         0.256688        -1.433475        -0.222689
 C        -0.731336        -0.471422         0.032131
 C        -1.708287         0.208957         0.386139
 C        -2.776272         1.150365         0.282757
 O        -2.235010         2.538468         0.234929
 C        -3.984357         0.844969         1.220422
 C        -4.275120        -0.575940         1.177293
 C        -3.753648        -1.540268         2.229488
 O        -4.982760        -1.034963         0.285135
 H         0.749111        -1.446442         0.773259
 H        -0.347503        -2.391758        -0.191606
 H         1.018427        -1.339325        -1.048822
 H        -3.239370         0.938911        -0.743427
 H        -1.730758         2.644721         1.017090
 H        -3.800584         1.171282         2.273183
 H        -4.775286         1.563572         0.821410
 H        -4.412276        -2.354741         2.293759
 H        -2.961864        -1.870291         1.599490
 H        -3.622484        -0.980866         3.128941
