19
Iteration:  4946
 C         0.626256        -0.886096        -1.087663
 C        -0.601302        -0.566938        -0.300362
 C        -1.594797        -0.064420         0.209423
 C        -2.716645         0.848095         0.287519
 O        -2.377006         2.183709         0.297941
 C        -3.509280         0.627756         1.630490
 C        -4.330339        -0.595812         1.504436
 C        -5.398199        -0.643935         2.558406
 O        -4.220297        -1.367419         0.612597
 H         1.576658        -0.818945        -0.479184
 H         0.584667        -1.837566        -1.585978
 H         0.730156        -0.158474        -1.852421
 H        -3.507875         0.688639        -0.559515
 H        -1.930119         2.289434        -0.558229
 H        -2.797986         0.445383         2.520830
 H        -4.078894         1.497591         1.784415
 H        -5.038998        -0.532899         3.585879
 H        -5.878357         0.289544         2.251520
 H        -6.053335        -1.399859         2.231886
