19
Iteration:  2958charge 0 multiplicity 1
 C         0.665952        -1.236390        -0.586104
 C        -0.509297        -0.386605        -0.279438
 C        -1.443863         0.330246        -0.028980
 C        -2.723263         1.001234         0.138613
 O        -2.459857         2.407130         0.255211
 C        -3.370923         0.407389         1.522641
 C        -4.409909        -0.638203         1.433886
 C        -4.980370        -1.118938         2.740119
 O        -4.864317        -1.094720         0.301693
 H         0.891304        -1.789162         0.331845
 H         0.633441        -1.992742        -1.384637
 H         1.549810        -0.563134        -0.761108
 H        -3.289570         0.869598        -0.730253
 H        -1.572742         2.513109         0.618006
 H        -2.571701         0.161145         2.217012
 H        -3.908724         1.288211         2.035606
 H        -4.961054        -0.244038         3.500231
 H        -6.057684        -1.255348         2.487306
 H        -4.537730        -2.111095         2.988305
