19
Iteration:  2370
 C         0.570247        -1.225884         0.339589
 C        -0.650384        -0.468616         0.004685
 C        -1.615583         0.269460        -0.139069
 C        -2.821649         1.134035         0.078692
 O        -2.487833         2.596104         0.067352
 C        -3.495305         0.632463         1.467297
 C        -4.326734        -0.647328         1.171877
 C        -3.943651        -1.998763         1.996196
 O        -5.386636        -0.596826         0.490305
 H         1.129257        -0.822435         1.145363
 H         0.287781        -2.247107         0.471177
 H         1.290052        -1.268300        -0.458870
 H        -3.508990         1.069821        -0.731691
 H        -1.708124         2.669968         0.582120
 H        -2.713945         0.218837         2.099836
 H        -4.175137         1.336709         1.868428
 H        -2.907612        -2.363704         2.011022
 H        -4.159283        -1.821081         3.033287
 H        -4.445963        -2.894331         1.525538
