19
Iteration:  2308
 C         0.758492        -1.178683         0.134953
 C        -0.468031        -0.342225         0.187321
 C        -1.656349         0.073427         0.131329
 C        -2.842001         1.021017         0.235324
 O        -2.526491         2.355476         0.012725
 C        -3.654530         0.691942         1.481940
 C        -4.427161        -0.613078         1.235316
 C        -3.914339        -1.846994         1.812265
 O        -5.399478        -0.481289         0.436660
 H         1.693146        -0.941302         0.795542
 H         0.437289        -2.226308         0.351924
 H         0.986817        -1.167016        -0.953929
 H        -3.478471         0.644945        -0.601012
 H        -1.768779         2.435678         0.546331
 H        -3.239374         0.833545         2.529281
 H        -4.407726         1.516118         1.425475
 H        -3.933604        -2.408879         0.855517
 H        -2.850591        -1.823774         2.135602
 H        -4.476225        -2.310246         2.615052
