19
Iteration:   996charge 0 multiplicity 1
 C         1.480670         0.209907         0.443356
 C         0.076212         0.096273         0.187083
 C        -1.123543         0.124873        -0.040008
 C        -2.606020         0.123169        -0.191074
 O        -3.009228         1.384094         0.456226
 C        -3.320540        -0.925420         0.769053
 C        -4.784650        -0.661437         1.102854
 C        -5.063470        -0.329677         2.598495
 O        -5.544233        -0.449428         0.205221
 H         1.684114         1.106291        -0.199328
 H         1.770035         0.376350         1.493005
 H         2.109010        -0.570744        -0.022313
 H        -3.124163         0.046937        -1.180676
 H        -2.624410         2.062613        -0.209000
 H        -3.314797        -1.852351         0.193572
 H        -2.669283        -1.032231         1.695029
 H        -4.402338         0.492814         2.780969
 H        -6.126899         0.004004         2.665922
 H        -4.656964        -1.085108         3.271495
