19
Iteration:   567charge 0 multiplicity 1
 C         1.212378        -0.549203        -0.584030
 C        -0.108126        -0.164804        -0.174003
 C        -1.177997         0.336798         0.155975
 C        -2.559319         0.686631         0.521073
 O        -2.619912         2.102444         0.872520
 C        -3.364721        -0.119634         1.637523
 C        -4.721734        -0.786302         1.139949
 C        -5.897113        -0.761599         2.055345
 O        -4.685116        -1.109248        -0.011102
 H         1.832760         0.221576        -0.172996
 H         1.502369        -1.535090        -0.221290
 H         1.260131        -0.524633        -1.669214
 H        -3.082760         0.485200        -0.448484
 H        -2.732886         2.594598         0.084554
 H        -2.704323        -1.029781         1.807257
 H        -3.527642         0.366857         2.566006
 H        -6.308907         0.233280         1.990023
 H        -6.743201        -1.323209         1.718723
 H        -5.471591        -0.919316         3.065087
