19
Iteration:  2678
 C         0.158817        -1.502741        -0.004928
 C        -0.928332        -0.600311         0.028962
 C        -1.822211         0.246204        -0.162242
 C        -2.876543         1.176216         0.111660
 O        -2.460503         2.598046         0.357299
 C        -3.463018         0.712594         1.452478
 C        -4.115109        -0.648480         1.208986
 C        -4.059283        -1.545436         2.399305
 O        -4.676955        -0.830321         0.122342
 H         0.791276        -1.669340         0.916348
 H        -0.193773        -2.462263        -0.435606
 H         0.804392        -1.115039        -0.815479
 H        -3.630343         1.265107        -0.663068
 H        -1.430818         2.632566         0.388197
 H        -2.768736         0.802048         2.307074
 H        -4.305680         1.368413         1.639586
 H        -3.129103        -1.228583         2.846676
 H        -4.852054        -1.156945         3.133739
 H        -4.093588        -2.582223         2.097338
