19
Iteration:  2892
 C         0.637970        -1.055409        -0.371576
 C        -0.608711        -0.320078        -0.360534
 C        -1.760183         0.020181        -0.145883
 C        -2.847381         0.933268         0.110760
 O        -2.216201         2.188463         0.280986
 C        -3.525662         0.588888         1.537097
 C        -4.415722        -0.552539         1.372404
 C        -4.693672        -1.265038         2.697078
 O        -4.802740        -0.874030         0.247734
 H         0.597786        -1.410620         0.620025
 H         0.684440        -1.823506        -1.118924
 H         1.554782        -0.489492        -0.440336
 H        -3.535841         0.980048        -0.666541
 H        -1.307853         2.050564         0.646911
 H        -2.799257         0.453703         2.324372
 H        -4.180863         1.326937         2.029824
 H        -5.077230        -0.524078         3.515921
 H        -5.513447        -2.006170         2.753347
 H        -3.829049        -1.600192         3.293301
