19
Iteration:   364charge 0 multiplicity 1
 C         1.273079        -0.682556        -0.039247
 C        -0.062099        -0.143820        -0.046804
 C        -1.183054         0.299047        -0.006820
 C        -2.601082         0.634008         0.229747
 O        -2.754522         2.064456         0.223530
 C        -3.231460        -0.047939         1.427064
 C        -4.703504        -0.587903         1.209428
 C        -5.127487        -1.656042         2.114197
 O        -5.500089        -0.178575         0.371860
 H         1.856391        -0.177034         0.714753
 H         1.262370        -1.740345         0.188461
 H         1.810498        -0.365714        -0.934269
 H        -2.990774         0.204200        -0.705480
 H        -2.861756         2.448269         1.199591
 H        -2.636385        -0.899476         1.721694
 H        -3.333817         0.653768         2.291773
 H        -5.244533        -1.372696         3.168099
 H        -6.083787        -2.038304         1.741114
 H        -4.371166        -2.457402         1.939289
