19
Iteration:  3013charge 0 multiplicity 1
 C         0.643001        -1.323722        -0.719365
 C        -0.396830        -0.322269        -0.311695
 C        -1.336975         0.360761         0.105331
 C        -2.670874         0.898648         0.311140
 O        -2.652786         2.296378         0.114018
 C        -3.347904         0.495732         1.618902
 C        -4.349437        -0.613064         1.515557
 C        -5.194798        -1.107633         2.659597
 O        -4.673940        -1.006914         0.295878
 H         0.985854        -2.125700        -0.040002
 H         0.363107        -1.741380        -1.721679
 H         1.531234        -0.715790        -1.094391
 H        -3.192037         0.575103        -0.525105
 H        -1.918725         2.721411         0.692973
 H        -2.630680         0.486624         2.424997
 H        -4.035262         1.324712         2.045612
 H        -5.006337        -0.542793         3.647838
 H        -6.248216        -0.925985         2.342320
 H        -5.037455        -2.169542         3.018551
