19
Iteration:   655charge 0 multiplicity 1
 C         1.207620        -0.375605        -0.617396
 C        -0.116460        -0.102721        -0.120469
 C        -1.253253         0.141876         0.268709
 C        -2.571284         0.675418         0.535967
 O        -2.557700         2.015552         0.959285
 C        -3.283191        -0.173882         1.580748
 C        -4.650995        -0.694838         1.037117
 C        -5.829023        -0.447188         1.923687
 O        -4.807152        -1.394325         0.017810
 H         1.790661         0.485355        -0.377826
 H         1.804363        -1.193869        -0.222841
 H         1.178301        -0.540209        -1.702323
 H        -3.216913         0.363803        -0.305346
 H        -3.577483         2.272932         0.776447
 H        -2.744002        -1.131392         1.704825
 H        -3.387456         0.372475         2.490540
 H        -5.944446         0.642857         1.650104
 H        -6.669884        -1.038281         1.517754
 H        -5.690046        -0.301873         3.061742
