19
Iteration:   926
 C         1.401927         0.214545         0.400650
 C        -0.025093         0.072696        -0.036176
 C        -1.229411         0.040868         0.012225
 C        -2.607349         0.220198        -0.100297
 O        -2.682264         1.567523         0.580541
 C        -3.207984        -1.015494         0.763343
 C        -4.810488        -0.718332         1.119961
 C        -5.110931        -0.141084         2.508455
 O        -5.601071        -0.700211         0.144940
 H         1.617646         1.175887        -0.067480
 H         1.581838         0.228203         1.507417
 H         2.165503        -0.428068        -0.119271
 H        -3.054964         0.521860        -1.030333
 H        -3.374983         1.548995         1.373579
 H        -3.339763        -1.912901         0.112031
 H        -2.607438        -1.351880         1.655981
 H        -5.087018         0.967114         2.413569
 H        -6.166820        -0.219571         2.725573
 H        -4.422459        -0.337417         3.303426
