19
Iteration:   746
 C         1.322707        -0.315126        -0.400960
 C        -0.031400         0.072970        -0.132332
 C        -1.175256         0.294550         0.200928
 C        -2.602780         0.546684         0.413136
 O        -2.772452         1.857113         0.845965
 C        -3.214619        -0.471300         1.376414
 C        -4.704607        -0.765541         1.055791
 C        -5.750883        -0.133435         2.023323
 O        -4.947378        -1.356879         0.053041
 H         2.164398         0.399521        -0.380919
 H         1.531145        -1.003519         0.435121
 H         1.340601        -0.974470        -1.272057
 H        -3.068562         0.619205        -0.578405
 H        -3.198166         1.904172         1.792060
 H        -2.783778        -1.419808         1.117367
 H        -2.891219        -0.228918         2.449170
 H        -5.230598         0.701846         2.514031
 H        -6.738974         0.211479         1.671304
 H        -5.995553        -0.808797         2.943642
