19
Iteration:   696
 C         1.333082        -0.408137        -0.544795
 C        -0.053601        -0.057453        -0.148833
 C        -1.190443         0.293779         0.155226
 C        -2.601032         0.625985         0.485602
 O        -2.706921         1.978571         0.937230
 C        -3.298715        -0.307331         1.549645
 C        -4.732074        -0.799371         1.124327
 C        -5.944559        -0.296563         1.957417
 O        -4.785287        -1.395702         0.032991
 H         1.842353         0.594420        -0.455801
 H         1.930049        -1.140865         0.040930
 H         1.434488        -0.581107        -1.624851
 H        -3.091059         0.653665        -0.505346
 H        -1.886449         2.436128         0.927701
 H        -2.720807        -1.296859         1.438876
 H        -3.115180        -0.039506         2.576001
 H        -5.840576         0.812951         2.262456
 H        -6.927841        -0.380039         1.484635
 H        -6.170478        -0.849988         2.912371
