19
Iteration:  4510charge 0 multiplicity 1
 C         0.092010        -1.450880         0.252112
 C        -0.904500        -0.480396         0.026250
 C        -1.756486         0.332089        -0.290277
 C        -2.885777         1.221395        -0.081181
 O        -2.304383         2.523738         0.159449
 C        -3.421264         0.733799         1.326294
 C        -4.136161        -0.656500         1.236000
 C        -3.741700        -1.681016         2.272422
 O        -5.161300        -0.836162         0.545848
 H         0.978415        -0.775732         0.427215
 H        -0.092586        -2.018653         1.153528
 H         0.299762        -2.042335        -0.593075
 H        -3.719952         1.294080        -0.899707
 H        -1.360109         2.294033        -0.155791
 H        -2.571181         0.656870         2.070151
 H        -4.246185         1.458567         1.648786
 H        -2.834941        -2.282780         2.151413
 H        -3.745908        -1.137360         3.233638
 H        -4.497799        -2.470913         2.283356
