19
Iteration:  1890charge 0 multiplicity 1
 C         0.493623        -1.141751         0.082284
 C        -0.778474        -0.453672         0.164880
 C        -1.816712         0.176675         0.185641
 C        -2.801592         1.173177         0.235610
 O        -2.197158         2.450184         0.635765
 C        -3.968956         0.770528         1.223250
 C        -4.411626        -0.647318         0.967333
 C        -3.911197        -1.547407         2.055372
 O        -4.954314        -1.094934        -0.032829
 H         1.181385        -0.358285        -0.234663
 H         0.875087        -1.499333         1.046456
 H         0.473750        -1.994227        -0.610402
 H        -3.214120         1.367291        -0.756783
 H        -1.300227         2.313772         0.869534
 H        -3.532858         0.890183         2.211358
 H        -4.861455         1.348451         1.226623
 H        -4.206586        -1.311000         3.085830
 H        -4.138575        -2.647557         1.915183
 H        -2.798792        -1.573134         2.132697
