19
Iteration:  4306charge 0 multiplicity 1
 C         0.923056        -1.190215         0.074268
 C        -0.308239        -0.427850        -0.039264
 C        -1.436495         0.046656         0.062124
 C        -2.728344         0.780947         0.077705
 O        -2.342598         2.211904        -0.010675
 C        -3.754943         0.740707         1.258909
 C        -4.778652        -0.477740         1.329704
 C        -3.827339        -1.579723         1.731599
 O        -5.947189        -0.458382         1.065142
 H         1.709448        -0.607404        -0.326607
 H         1.267465        -1.447480         1.082415
 H         0.965071        -2.048498        -0.614305
 H        -3.434466         0.452182        -0.813460
 H        -1.358599         2.159543         0.325098
 H        -3.219636         0.816449         2.166907
 H        -4.271486         1.706871         1.112829
 H        -2.871615        -1.581062         1.200892
 H        -3.337166        -1.435578         2.757192
 H        -4.202521        -2.588083         1.824283
