19
Iteration:  4214
 C         0.836166        -0.788263         0.300043
 C        -0.570103        -0.498146         0.103289
 C        -1.707345        -0.118656        -0.092462
 C        -2.767760         0.862121        -0.020673
 O        -2.256928         2.174401        -0.332362
 C        -3.433667         0.574316         1.470913
 C        -4.552978        -0.521261         1.369152
 C        -4.067674        -1.929885         1.628474
 O        -5.684394        -0.207915         1.135642
 H         1.484600        -0.101837        -0.355711
 H         1.073349        -0.579461         1.354598
 H         1.061668        -1.815491        -0.015263
 H        -3.653688         0.806584        -0.837694
 H        -1.545560         2.309085         0.295995
 H        -2.646441         0.188603         2.191447
 H        -3.917455         1.448157         1.875791
 H        -3.103261        -2.028853         1.074294
 H        -3.881025        -1.959307         2.724239
 H        -4.957691        -2.496514         1.252539
