19
Iteration:  3641
 C         0.430225        -1.211999        -0.106560
 C        -0.949626        -0.812402        -0.074696
 C        -1.777402         0.122609        -0.053894
 C        -2.878772         1.103374         0.064778
 O        -2.171834         2.429419         0.011875
 C        -3.673400         0.883095         1.439422
 C        -4.319805        -0.499339         1.369067
 C        -4.054956        -1.491218         2.474371
 O        -4.940968        -0.937958         0.416738
 H         0.623686        -2.106743        -0.754647
 H         1.011919        -0.401439        -0.612538
 H         0.817418        -1.243996         0.981342
 H        -3.625677         1.029213        -0.743972
 H        -1.481858         2.429375         0.765589
 H        -3.022368         1.098588         2.335789
 H        -4.451117         1.702713         1.419676
 H        -2.963446        -1.739957         2.240540
 H        -4.087599        -1.210615         3.550845
 H        -4.613963        -2.369565         2.109509
