19
Iteration:  1462charge 0 multiplicity 1
 C         0.863687        -0.822509        -0.075671
 C        -0.472173        -0.248875         0.135600
 C        -1.603475         0.230242         0.063792
 C        -2.811725         0.981886         0.323322
 O        -2.478559         2.494477         0.392984
 C        -3.626055         0.445351         1.446698
 C        -4.469897        -0.772324         1.055848
 C        -5.057557        -1.471040         2.241181
 O        -4.457484        -1.150624        -0.073082
 H         1.215831        -0.404605        -1.036457
 H         1.610385        -0.647276         0.784022
 H         0.912196        -1.995702        -0.187247
 H        -3.535820         0.742701        -0.532151
 H        -2.211962         2.749726         1.282083
 H        -2.959639         0.098056         2.271292
 H        -4.329503         1.226781         1.858057
 H        -4.527865        -1.362192         3.194753
 H        -6.125492        -1.314592         2.476776
 H        -5.201479        -2.524771         1.973793
