19
Iteration:  2008charge 0 multiplicity 1
 C         0.382596        -1.536105         0.280431
 C        -0.657812        -0.424774         0.320148
 C        -1.440446         0.536458         0.273582
 C        -2.710813         1.221878         0.180387
 O        -2.703863         2.665349         0.249047
 C        -3.646347         0.686820         1.333954
 C        -4.347584        -0.639222         1.068648
 C        -3.743438        -1.922065         1.718041
 O        -5.212914        -0.830520         0.269737
 H         1.441325        -1.242055         0.376874
 H         0.218397        -2.264738         1.133975
 H         0.110974        -2.186689        -0.612756
 H        -3.127629         0.807301        -0.794370
 H        -2.067285         3.011747        -0.392446
 H        -2.974689         0.516873         2.225399
 H        -4.249572         1.596528         1.632223
 H        -4.374792        -2.559429         1.148964
 H        -2.692965        -1.950981         1.611852
 H        -3.944774        -1.952203         2.783935
