19
Iteration:  3450
 C         0.311726        -1.179459        -0.110511
 C        -0.989125        -0.625135        -0.434187
 C        -1.849896         0.192340        -0.186498
 C        -2.760108         1.168876         0.160486
 O        -2.046523         2.445150         0.272928
 C        -3.571617         0.785025         1.491838
 C        -4.264139        -0.665215         1.326874
 C        -4.529254        -1.396444         2.605549
 O        -4.547391        -1.144025         0.303220
 H         0.264735        -2.235522         0.276326
 H         1.032380        -0.929901        -0.929705
 H         0.580453        -0.473319         0.684851
 H        -3.539948         1.217086        -0.644458
 H        -1.727325         2.547253        -0.642648
 H        -2.950376         0.820088         2.378400
 H        -4.425373         1.451562         1.727656
 H        -3.777096        -1.344939         3.463296
 H        -5.298032        -0.693091         3.130482
 H        -5.080763        -2.365177         2.591569
