19
Iteration:  1385
 C         0.870791        -0.925872         0.059104
 C        -0.246518        -0.039248        -0.102018
 C        -1.284057         0.645454        -0.007213
 C        -2.659093         0.923364         0.179877
 O        -2.755165         2.380165         0.587755
 C        -3.403710         0.191769         1.471707
 C        -4.495632        -0.696102         1.036980
 C        -5.257863        -1.281011         2.222731
 O        -4.661649        -1.333212         0.027319
 H         1.568024        -0.858920        -0.798137
 H         1.510454        -0.898002         1.017909
 H         0.509368        -2.051928         0.065672
 H        -3.271543         0.617094        -0.701242
 H        -3.036930         2.884298        -0.173989
 H        -2.905406        -0.603349         2.093381
 H        -3.852453         0.912537         2.216450
 H        -4.732868        -2.165454         2.528284
 H        -5.355967        -0.731323         3.193812
 H        -6.309098        -1.491561         1.884956
