19
Iteration:   792
 C         1.382837        -0.279931        -0.263180
 C         0.013445         0.005921         0.031187
 C        -1.131398         0.337443         0.154009
 C        -2.548215         0.468895         0.337061
 O        -2.968922         1.719583         0.968311
 C        -3.107418        -0.592203         1.166648
 C        -4.666482        -0.657983         0.979735
 C        -5.505007        -0.050627         2.112746
 O        -5.274680        -1.270485         0.087608
 H         1.823928         0.774346        -0.397860
 H         2.027378        -0.718769         0.532217
 H         1.420923        -0.824797        -1.204134
 H        -3.033661         0.441774        -0.695048
 H        -3.353864         2.263046         0.166497
 H        -2.640320        -1.584931         0.810395
 H        -2.856197        -0.409217         2.240078
 H        -5.030358         0.950692         2.218575
 H        -6.534655        -0.009344         1.771226
 H        -5.465133        -0.702706         2.974249
