19
Iteration:  4505charge 0 multiplicity 1
 C         0.075284        -1.422327         0.267768
 C        -0.949124        -0.460882         0.068236
 C        -1.784236         0.299270        -0.274230
 C        -2.840289         1.239719        -0.053237
 O        -2.297215         2.511778         0.138764
 C        -3.382549         0.718469         1.305504
 C        -4.193494        -0.683484         1.208324
 C        -3.742830        -1.666044         2.223258
 O        -5.166751        -0.839873         0.583519
 H         0.943713        -0.798866         0.379367
 H         0.008699        -2.076011         1.169170
 H         0.291750        -2.081267        -0.650486
 H        -3.516058         1.330263        -0.874873
 H        -1.431828         2.554518        -0.200020
 H        -2.629029         0.675322         2.059495
 H        -4.095610         1.445475         1.578960
 H        -2.769931        -2.198398         2.075256
 H        -3.526952        -1.100668         3.143191
 H        -4.337467        -2.600086         2.322132
