19
Iteration:  1447
 C         0.841820        -0.848746        -0.036544
 C        -0.459874        -0.254102         0.114483
 C        -1.500332         0.392959         0.031361
 C        -2.779078         1.029192         0.253002
 O        -2.598018         2.369958         0.426843
 C        -3.527223         0.435178         1.556643
 C        -4.409838        -0.769073         1.030714
 C        -5.127795        -1.433113         2.236229
 O        -4.537736        -1.225472        -0.099833
 H         1.377336        -0.494341        -0.922407
 H         1.460541        -0.504220         0.774663
 H         0.660380        -1.876604        -0.150014
 H        -3.403564         1.048464        -0.693673
 H        -2.139112         2.403895         1.244675
 H        -2.832490         0.023026         2.292452
 H        -4.130924         1.201704         2.006244
 H        -4.343317        -1.407270         2.983108
 H        -5.870985        -0.643628         2.385724
 H        -5.321620        -2.515445         2.109512
