19
Iteration:  2474
 C         0.403294        -1.359089        -0.035311
 C        -0.794050        -0.645731         0.164955
 C        -1.645576         0.206052         0.154031
 C        -2.749076         1.095765         0.208566
 O        -2.464168         2.553737         0.245143
 C        -3.774688         0.902107         1.327943
 C        -4.303036        -0.652932         1.122628
 C        -3.706109        -1.643068         2.137137
 O        -5.167592        -0.854343         0.313310
 H         1.129844        -1.331034         0.811082
 H         0.187096        -2.445791        -0.225402
 H         0.851711        -1.032768        -1.015082
 H        -3.356475         1.008853        -0.743096
 H        -1.501425         2.567489         0.608485
 H        -3.421446         1.330681         2.277515
 H        -4.626423         1.608391         1.001380
 H        -4.323952        -1.518943         3.004984
 H        -3.632234        -2.625662         1.678239
 H        -2.661135        -1.398087         2.220752
