19
Iteration:  4053charge 0 multiplicity 1
 C         0.808191        -1.298822         0.118330
 C        -0.459972        -0.511859         0.106081
 C        -1.382280         0.259915         0.332243
 C        -2.721938         0.904832         0.246468
 O        -2.443565         2.155690        -0.422479
 C        -3.666162         0.835105         1.422029
 C        -4.586761        -0.487911         1.266063
 C        -3.773258        -1.695059         1.492037
 O        -5.804029        -0.454194         1.129056
 H         1.487668        -1.285085        -0.781384
 H         1.403417        -0.946254         0.970173
 H         0.635700        -2.296705         0.397130
 H        -3.463194         0.185826        -0.358069
 H        -3.037790         2.829631        -0.251641
 H        -3.122082         0.704550         2.377787
 H        -4.213234         1.761330         1.413306
 H        -3.028073        -1.771473         0.755447
 H        -3.224651        -1.661536         2.427821
 H        -4.395516        -2.619030         1.469328
