19
Iteration:   376
 C         1.313933        -0.666807        -0.053279
 C        -0.093407        -0.235760        -0.039703
 C        -1.172828         0.351022         0.032583
 C        -2.598071         0.630470         0.119598
 O        -2.811953         2.201102         0.277829
 C        -3.301186        -0.084306         1.402833
 C        -4.673126        -0.612785         1.211274
 C        -5.197512        -1.701001         2.173906
 O        -5.390362        -0.207914         0.326647
 H         1.867080        -0.239669         0.775970
 H         1.366188        -1.743115         0.064915
 H         1.771965        -0.612355        -1.024394
 H        -3.288410         0.431317        -0.741985
 H        -2.231170         2.230108         1.028115
 H        -2.542819        -0.789126         1.874243
 H        -3.373465         0.664603         2.213122
 H        -5.246924        -1.232916         3.204580
 H        -6.187601        -2.024188         1.871693
 H        -4.526086        -2.536415         2.395397
