19
Iteration:  2473charge 0 multiplicity 1
 C         0.406632        -1.354835        -0.034985
 C        -0.795058        -0.661165         0.158908
 C        -1.645394         0.212213         0.158061
 C        -2.751542         1.095062         0.199807
 O        -2.468738         2.561719         0.246015
 C        -3.768474         0.912346         1.329097
 C        -4.296345        -0.657709         1.127264
 C        -3.710277        -1.646404         2.132187
 O        -5.173690        -0.854969         0.313588
 H         1.103354        -1.313923         0.820304
 H         0.204707        -2.416754        -0.206946
 H         0.870248        -1.057235        -0.981182
 H        -3.337493         0.993718        -0.727843
 H        -1.491651         2.549814         0.608382
 H        -3.415043         1.309643         2.279092
 H        -4.598328         1.613945         1.005157
 H        -4.305449        -1.515409         3.021851
 H        -3.636531        -2.640198         1.707666
 H        -2.683537        -1.434376         2.188640
