19
Iteration:   783charge 0 multiplicity 1
 C         1.425169        -0.262176        -0.304558
 C        -0.019654        -0.050649         0.026305
 C        -1.167512         0.348008         0.142673
 C        -2.553118         0.556956         0.381273
 O        -2.993992         1.756033         0.946995
 C        -3.074559        -0.612373         1.219333
 C        -4.702055        -0.661506         1.021133
 C        -5.558304        -0.111300         2.027113
 O        -5.227072        -1.262204         0.120162
 H         2.014742         0.664557        -0.543503
 H         1.874145        -0.890010         0.504537
 H         1.538887        -0.864354        -1.231396
 H        -3.070740         0.278725        -0.588383
 H        -2.711650         2.495155         0.284473
 H        -2.666935        -1.611678         0.824460
 H        -2.724301        -0.511193         2.245469
 H        -5.141189         0.871893         2.319176
 H        -6.533513         0.012252         1.592526
 H        -5.533000        -0.682692         2.889231
