19
Iteration:  4278charge 0 multiplicity 1
 C         0.871067        -0.921076         0.129118
 C        -0.461719        -0.462992         0.077020
 C        -1.649149        -0.198211         0.022672
 C        -2.780389         0.806169        -0.015835
 O        -2.293731         2.122046        -0.019350
 C        -3.689195         0.782998         1.232080
 C        -4.517926        -0.457188         1.328177
 C        -3.927433        -1.744496         1.690698
 O        -5.765465        -0.300804         1.109569
 H         1.603516        -0.223501        -0.403920
 H         1.310584        -1.053869         1.124645
 H         1.035416        -1.848246        -0.461097
 H        -3.490167         0.590482        -0.827703
 H        -1.346157         2.054183         0.332626
 H        -3.055858         0.831778         2.205261
 H        -4.357310         1.634666         1.089629
 H        -2.986740        -2.025018         1.191033
 H        -3.613426        -1.956058         2.684535
 H        -4.608605        -2.608829         1.583509
