19
Iteration:  2565
 C         0.302102        -1.489442        -0.226077
 C        -0.856118        -0.694834         0.120473
 C        -1.598396         0.259317         0.119248
 C        -2.729019         1.172634         0.203954
 O        -2.402918         2.650521         0.404772
 C        -3.864148         0.890862         1.196041
 C        -4.285250        -0.564246         1.159356
 C        -3.803252        -1.495070         2.336050
 O        -4.985935        -1.086975         0.220846
 H         0.894088        -1.594475         0.720664
 H        -0.060977        -2.555536        -0.403230
 H         0.989642        -1.232487        -1.090732
 H        -3.160663         1.283766        -0.851865
 H        -1.767697         2.817963         1.094821
 H        -3.398945         1.179307         2.194868
 H        -4.707978         1.477486         0.879704
 H        -3.842195        -2.564677         2.129862
 H        -2.806485        -1.214258         2.562518
 H        -4.193095        -1.376201         3.352641
