19
Iteration:  4042
 C         0.798252        -1.229591         0.200944
 C        -0.533313        -0.609492         0.053215
 C        -1.452806         0.169564         0.234550
 C        -2.701813         0.904631         0.166443
 O        -2.380866         2.159865        -0.375414
 C        -3.719744         0.856973         1.502369
 C        -4.563811        -0.423947         1.315590
 C        -3.715629        -1.732313         1.484424
 O        -5.771746        -0.459611         1.119587
 H         1.353925        -1.147194        -0.771575
 H         1.288535        -0.652414         0.971810
 H         0.652710        -2.248244         0.432013
 H        -3.266284         0.403615        -0.779529
 H        -3.075219         2.821288        -0.111010
 H        -3.291194         0.963396         2.515286
 H        -4.426619         1.670119         1.366784
 H        -2.995381        -1.699488         0.733065
 H        -3.124320        -1.694600         2.394389
 H        -4.310337        -2.656912         1.378322
