19
Iteration:  2693
 C         0.199656        -1.542433        -0.133848
 C        -0.891593        -0.591186         0.191099
 C        -1.779622         0.246518        -0.230416
 C        -2.847707         1.214142         0.150119
 O        -2.541088         2.527621         0.327396
 C        -3.517161         0.748063         1.483189
 C        -4.158028        -0.544652         1.150254
 C        -4.012390        -1.523374         2.386268
 O        -4.661715        -0.826799         0.138565
 H         0.676312        -1.712668         0.798245
 H        -0.101951        -2.544472        -0.343134
 H         0.986181        -1.167505        -0.759551
 H        -3.641408         1.115781        -0.581620
 H        -1.545932         2.602137         0.328632
 H        -2.664787         0.526996         2.093638
 H        -3.952329         1.598921         2.111112
 H        -3.455131        -1.430512         3.367625
 H        -5.102751        -1.415378         2.816125
 H        -4.147094        -2.671793         2.248372
