19
Iteration:  2404charge 0 multiplicity 1
 C         0.382417        -1.273035         0.273870
 C        -0.540504        -0.203546         0.045349
 C        -1.605698         0.264372        -0.196855
 C        -2.848858         1.006451        -0.016564
 O        -2.400285         2.484859         0.178325
 C        -3.655425         0.588588         1.411416
 C        -4.297657        -0.594894         1.263159
 C        -3.892384        -1.859098         2.042710
 O        -5.251748        -0.665884         0.476473
 H         0.912796        -1.321060         1.189765
 H        -0.233489        -2.121123         0.292346
 H         0.962075        -1.361252        -0.596857
 H        -3.527928         1.003695        -0.808275
 H        -1.542354         2.431066         0.704412
 H        -2.931102         0.571893         2.222617
 H        -4.366814         1.269421         1.758134
 H        -2.971428        -1.706297         2.586907
 H        -4.737712        -2.229789         2.574891
 H        -3.920928        -2.578212         1.226431
