19
Iteration:  3126charge 0 multiplicity 1
 C         0.754756        -1.038239        -0.608601
 C        -0.583116        -0.438699        -0.549110
 C        -1.528526         0.226634        -0.222785
 C        -2.658660         1.082151         0.134600
 O        -2.128785         2.367253         0.400241
 C        -3.581083         0.560546         1.426768
 C        -4.599499        -0.571546         1.381125
 C        -5.237085        -1.074612         2.838904
 O        -4.665126        -1.416941         0.523965
 H         0.678392        -1.609319         0.327018
 H         1.074876        -1.612115        -1.459193
 H         1.472710        -0.283832        -0.426990
 H        -3.337815         1.098725        -0.704546
 H        -1.203473         2.297313         0.567344
 H        -2.832143         0.234778         2.216695
 H        -4.081859         1.425483         1.827034
 H        -4.689838        -0.631557         3.723367
 H        -6.290346        -0.710043         3.033367
 H        -5.149267        -2.202645         2.800630
