19
Iteration:  2311
 C         0.768363        -1.191540         0.154575
 C        -0.498138        -0.355563         0.175582
 C        -1.635154         0.086908         0.124441
 C        -2.876319         1.027808         0.203096
 O        -2.539794         2.353109         0.027515
 C        -3.635454         0.672963         1.490823
 C        -4.405298        -0.595155         1.237459
 C        -3.932728        -1.814024         1.786901
 O        -5.381245        -0.489774         0.448945
 H         1.619116        -0.927292         0.786193
 H         0.539815        -2.277492         0.352334
 H         0.990152        -1.140917        -0.935412
 H        -3.524955         0.651159        -0.646529
 H        -1.734124         2.473314         0.565691
 H        -3.212701         0.809029         2.470379
 H        -4.414510         1.456503         1.495997
 H        -3.840818        -2.464139         0.883864
 H        -2.928458        -1.873658         2.287431
 H        -4.480508        -2.291180         2.553098
