19
Iteration:  3811charge 0 multiplicity 1
 C         0.280671        -1.598738        -0.130104
 C        -0.485811        -0.447465         0.266043
 C        -1.428476         0.292564         0.478592
 C        -2.731388         0.929664         0.218417
 O        -2.456206         2.378931        -0.250172
 C        -3.836529         0.923899         1.421241
 C        -4.372404        -0.452497         1.333231
 C        -3.525219        -1.523695         1.859651
 O        -5.428614        -0.764690         0.678451
 H        -0.092114        -1.972775        -1.144975
 H         1.374306        -1.407797        -0.153989
 H         0.177263        -2.413127         0.576822
 H        -3.128694         0.465763        -0.601282
 H        -3.260411         2.513731        -0.881977
 H        -3.428156         1.124954         2.395587
 H        -4.510206         1.755518         1.145400
 H        -2.790704        -1.708182         1.144832
 H        -3.077378        -1.148464         2.757754
 H        -4.202985        -2.323839         2.072349
