19
Iteration:  4736charge 0 multiplicity 1
 C         0.545128        -1.148326        -0.504320
 C        -0.743908        -0.445043        -0.434634
 C        -1.756441         0.218022        -0.288907
 C        -2.844870         1.030179         0.190857
 O        -2.214148         2.365757         0.363810
 C        -3.382638         0.530145         1.499241
 C        -4.329512        -0.704449         1.460106
 C        -5.063583        -0.865436         2.649705
 O        -4.461166        -1.354510         0.480317
 H         1.216067        -0.572801         0.244019
 H         0.470723        -2.217344        -0.165928
 H         1.027281        -1.098843        -1.515435
 H        -3.719900         1.159645        -0.506674
 H        -1.515077         2.463634        -0.254435
 H        -2.583382         0.326397         2.261073
 H        -3.872068         1.421705         1.916896
 H        -4.266052        -1.099396         3.421494
 H        -5.562649        -0.028721         3.138200
 H        -5.736856        -1.752036         2.597233
