19
Iteration:  4398
 C         0.401478        -1.549173         0.020590
 C        -0.541268        -0.548949         0.388005
 C        -1.434696         0.247518         0.130017
 C        -2.713257         1.077375         0.088886
 O        -2.462452         2.457670        -0.035527
 C        -3.726604         0.835810         1.218702
 C        -4.433264        -0.491060         1.244998
 C        -3.617574        -1.602330         1.782776
 O        -5.622635        -0.741249         0.865434
 H         1.333609        -1.010961        -0.266355
 H         0.760838        -2.282089         0.718861
 H         0.035442        -1.988687        -0.895000
 H        -3.087295         0.791024        -0.939169
 H        -1.600209         2.587568        -0.339445
 H        -3.129837         0.830256         2.205707
 H        -4.430523         1.674176         1.285531
 H        -2.686028        -1.743733         1.174610
 H        -3.235149        -1.227664         2.736457
 H        -4.125819        -2.524513         2.083200
