19
Iteration:  3491charge 0 multiplicity 1
 C         0.390035        -1.451964        -0.149838
 C        -0.718271        -0.511513        -0.169864
 C        -1.788424         0.144831        -0.230972
 C        -2.898401         1.077080         0.071766
 O        -2.488021         2.441702         0.312384
 C        -3.474124         0.779245         1.433891
 C        -4.302323        -0.538099         1.369267
 C        -4.386626        -1.387925         2.575547
 O        -4.587052        -0.903502         0.285860
 H         0.015754        -2.433466        -0.040614
 H         1.067183        -1.445126        -0.982172
 H         0.979493        -1.410986         0.763981
 H        -3.646430         1.104057        -0.800066
 H        -1.631172         2.703980        -0.192475
 H        -2.560881         0.694654         2.102682
 H        -3.823678         1.740570         1.705861
 H        -3.467742        -1.451304         3.151832
 H        -5.175250        -0.867481         3.092408
 H        -4.692572        -2.398175         2.332519
