19
Iteration:  3462charge 0 multiplicity 1
 C         0.345183        -1.203324        -0.076938
 C        -0.930425        -0.651798        -0.450342
 C        -1.847712         0.173523        -0.221706
 C        -2.838612         1.148303         0.226159
 O        -2.177817         2.451466         0.261679
 C        -3.562387         0.694779         1.464246
 C        -4.148852        -0.654840         1.392732
 C        -4.509869        -1.366213         2.660145
 O        -4.567153        -0.991718         0.241928
 H         0.217022        -2.339892         0.124824
 H         1.174788        -1.311604        -0.839958
 H         0.769262        -0.825270         0.874877
 H        -3.618674         1.237931        -0.537969
 H        -1.683516         2.526981        -0.533837
 H        -2.997404         0.942589         2.334984
 H        -4.428270         1.419860         1.372215
 H        -3.607008        -1.449293         3.354044
 H        -5.372501        -0.702554         3.045024
 H        -4.880771        -2.359623         2.315911
