19
Iteration:   720
 C         1.303077        -0.377488        -0.458030
 C        -0.051390         0.110478        -0.150942
 C        -1.218745         0.236878         0.139814
 C        -2.601484         0.524459         0.485488
 O        -2.664493         1.945953         0.973361
 C        -3.229331        -0.427311         1.511863
 C        -4.615104        -0.673151         1.028558
 C        -5.772289        -0.282070         1.903908
 O        -4.973217        -1.394695         0.092173
 H         2.036236         0.400062        -0.478020
 H         1.635276        -1.148525         0.262280
 H         1.288006        -0.796488        -1.484728
 H        -3.114393         0.706940        -0.447387
 H        -3.257594         2.486701         0.348895
 H        -2.802075        -1.384880         1.867346
 H        -3.263232         0.204212         2.362269
 H        -5.567754         0.715940         2.432523
 H        -6.735631        -0.130053         1.352320
 H        -6.054300        -1.068848         2.733806
