19
Iteration:  3623charge 0 multiplicity 1
 C         0.450550        -1.354819        -0.231506
 C        -0.855400        -0.649274        -0.016660
 C        -1.775662         0.117724         0.205402
 C        -2.808632         1.119760         0.101019
 O        -2.340138         2.452832         0.009904
 C        -3.659677         0.873758         1.341364
 C        -4.339973        -0.529385         1.333510
 C        -4.061285        -1.502685         2.494498
 O        -4.908670        -0.898137         0.361368
 H         0.277018        -2.264672        -0.744449
 H         1.069954        -0.706580        -0.851065
 H         0.908266        -1.499065         0.748572
 H        -3.317899         0.987268        -0.817834
 H        -1.378157         2.534453         0.309250
 H        -2.948093         0.892461         2.177838
 H        -4.421085         1.634840         1.525028
 H        -3.069830        -1.923804         2.457282
 H        -4.028449        -0.979466         3.408925
 H        -4.795184        -2.264721         2.616779
