19
Iteration:  3864charge 0 multiplicity 1
 C         0.461939        -1.494787         0.078914
 C        -0.697531        -0.583350         0.350227
 C        -1.595748         0.261485         0.265140
 C        -2.796654         1.125527         0.129578
 O        -2.368906         2.383992        -0.360158
 C        -3.694580         0.946966         1.386664
 C        -4.332945        -0.544174         1.315421
 C        -3.584029        -1.781984         1.751376
 O        -5.451775        -0.649969         0.886525
 H         0.344775        -1.667180        -0.997304
 H         1.423974        -0.983785         0.230772
 H         0.429391        -2.483469         0.557891
 H        -3.422744         0.685047        -0.742315
 H        -3.167959         3.028916        -0.322092
 H        -3.186078         1.063096         2.354847
 H        -4.478793         1.731151         1.277481
 H        -3.196300        -2.098364         0.825191
 H        -2.772748        -1.504307         2.377707
 H        -4.257774        -2.474368         2.214096
