19
Iteration:  2545charge 0 multiplicity 1
 C         0.326984        -1.539240        -0.174453
 C        -0.802662        -0.584328        -0.040996
 C        -1.650684         0.266876         0.379585
 C        -2.788815         1.233373         0.246121
 O        -2.293134         2.600615         0.275032
 C        -3.996172         0.913344         1.225170
 C        -4.254622        -0.631895         1.207232
 C        -3.751099        -1.527185         2.244742
 O        -5.012643        -1.051111         0.227870
 H         1.096568        -1.601706         0.623127
 H         0.085865        -2.583233        -0.477608
 H         0.859885        -1.177475        -1.094871
 H        -3.137032         1.192997        -0.807172
 H        -1.666182         2.652304         1.095763
 H        -3.786576         1.309956         2.261503
 H        -4.946301         1.311252         0.945179
 H        -4.354520        -2.487930         2.233054
 H        -2.676694        -1.743727         2.348198
 H        -3.859127        -1.044999         3.284680
