19
Iteration:  1274
 C         1.335130        -0.525620        -0.245831
 C        -0.064893         0.013939         0.090037
 C        -1.259285         0.174859         0.324487
 C        -2.572102         0.695287         0.378183
 O        -2.736294         2.189114         0.173747
 C        -3.377717         0.174327         1.640138
 C        -4.645184        -0.777863         1.137093
 C        -5.528232        -1.304742         2.262883
 O        -4.998712        -0.929146        -0.051358
 H         1.753389        -0.170063        -1.191887
 H         1.896844        -0.361927         0.696832
 H         1.216161        -1.650089        -0.268585
 H        -3.204923         0.167703        -0.327570
 H        -3.186683         2.095782        -0.736091
 H        -2.786471        -0.482647         2.331163
 H        -3.801921         1.006203         2.235240
 H        -6.539770        -1.458405         1.943802
 H        -4.991306        -2.076488         2.804158
 H        -5.516021        -0.450838         3.011650
