19
Iteration:   811
 C         1.517152        -0.210257        -0.234451
 C         0.028385         0.079753         0.079524
 C        -1.170471         0.339852         0.218326
 C        -2.607403         0.505029         0.202079
 O        -2.922693         1.706035         0.883886
 C        -3.267133        -0.766620         1.075442
 C        -4.780014        -0.711936         1.044539
 C        -5.381400         0.051248         2.204913
 O        -5.258243        -1.237873         0.026876
 H         2.217304         0.581279        -0.501491
 H         1.828408        -0.769178         0.625644
 H         1.554694        -0.931190        -1.049792
 H        -2.972891         0.336306        -0.788650
 H        -3.894090         1.677829         1.044435
 H        -2.913317        -1.757393         0.891201
 H        -2.870589        -0.481378         2.080452
 H        -4.918967         1.075363         2.269906
 H        -6.488986         0.050019         2.159529
 H        -5.002776        -0.566152         3.129143
