19
Iteration:  4295
 C         0.962668        -1.080216         0.078372
 C        -0.377828        -0.402119         0.013631
 C        -1.546759        -0.046839         0.006845
 C        -2.797021         0.710771         0.060432
 O        -2.338496         2.109911         0.024663
 C        -3.729412         0.775466         1.263099
 C        -4.659477        -0.446431         1.289589
 C        -3.812756        -1.638338         1.707789
 O        -5.879586        -0.367958         1.088550
 H         1.734212        -0.475569        -0.289501
 H         1.167261        -1.336336         1.132608
 H         0.900311        -2.051855        -0.445579
 H        -3.282775         0.583636        -0.973624
 H        -1.405891         2.191234         0.365687
 H        -3.170328         0.725805         2.151681
 H        -4.280444         1.730523         1.199214
 H        -2.939511        -1.685427         1.057426
 H        -3.648691        -1.259067         2.772862
 H        -4.374453        -2.568221         1.709098
