19
Iteration:  3908charge 0 multiplicity 1
 C         0.516733        -1.353868         0.380971
 C        -0.569433        -0.534555        -0.075141
 C        -1.561509         0.183184        -0.152076
 C        -2.871444         0.936059        -0.060263
 O        -2.401263         2.360522         0.068779
 C        -3.612633         0.743295         1.159788
 C        -4.368509        -0.541602         1.314481
 C        -3.586417        -1.755047         1.872529
 O        -5.626994        -0.434026         1.003756
 H         1.050196        -1.856183        -0.438606
 H         1.304522        -0.858873         0.961843
 H         0.293656        -2.231316         0.985310
 H        -3.408618         0.821964        -1.127367
 H        -3.073910         3.007563        -0.385555
 H        -2.924661         0.961660         1.976213
 H        -4.351983         1.591796         1.272561
 H        -3.320833        -2.277332         0.969811
 H        -2.639823        -1.516007         2.336307
 H        -4.138254        -2.396291         2.530372
