19
Iteration:   789
 C         1.406267        -0.274502        -0.276687
 C        -0.007101        -0.015544         0.031449
 C        -1.157371         0.340598         0.149112
 C        -2.540040         0.505526         0.357503
 O        -2.976601         1.728419         0.966018
 C        -3.079430        -0.597471         1.178131
 C        -4.686553        -0.646227         0.986157
 C        -5.525523        -0.076612         2.078595
 O        -5.261549        -1.266529         0.107340
 H         1.867242         0.706190        -0.459611
 H         1.962964        -0.768201         0.511584
 H         1.453632        -0.816385        -1.219964
 H        -3.034005         0.327826        -0.606461
 H        -3.142776         2.329697         0.143242
 H        -2.661931        -1.520841         0.851431
 H        -2.776404        -0.447927         2.251107
 H        -5.020339         0.905566         2.165868
 H        -6.553139        -0.005829         1.656253
 H        -5.495916        -0.783749         3.012111
