19
Iteration:  4779charge 0 multiplicity 1
 C         0.499346        -1.051925        -0.422817
 C        -0.695086        -0.296527        -0.678540
 C        -1.808006         0.114287        -0.513233
 C        -2.777313         1.000180         0.132367
 O        -2.297255         2.304006         0.356517
 C        -3.128407         0.327845         1.654645
 C        -4.265331        -0.592954         1.574643
 C        -5.315551        -0.821406         2.616348
 O        -4.378641        -1.311465         0.577563
 H         0.963832        -0.534356         0.425699
 H         0.232141        -2.059894        -0.029462
 H         1.174338        -1.163671        -1.285348
 H        -3.730676         1.058963        -0.515847
 H        -1.388850         2.253609         0.534127
 H        -2.259535        -0.137497         2.198559
 H        -3.581943         1.172338         2.212019
 H        -4.912122        -0.929292         3.676027
 H        -5.959096         0.027012         2.640782
 H        -6.089289        -1.555553         2.338164
