19
Iteration:  1129charge 0 multiplicity 1
 C         1.499067        -0.066236         0.262149
 C         0.038452         0.068845         0.004663
 C        -1.175139         0.287860        -0.046534
 C        -2.581130         0.257484         0.100396
 O        -2.999863         1.605023         0.159708
 C        -3.195012        -0.467252         1.297171
 C        -4.733448        -0.705733         1.104492
 C        -5.365795        -0.887973         2.509679
 O        -5.398530        -0.419813         0.129420
 H         1.939550         0.624958        -0.546381
 H         1.863639         0.286502         1.239866
 H         1.904305        -1.054734         0.080529
 H        -3.055094        -0.133049        -0.802839
 H        -2.115789         2.029409        -0.036805
 H        -2.718352        -1.497879         1.330729
 H        -2.917425         0.011677         2.228063
 H        -5.135602        -0.109349         3.294360
 H        -6.437322        -0.967917         2.363643
 H        -5.099478        -1.822332         2.930777
