19
Iteration:  4939
 C         0.614061        -0.914104        -1.138141
 C        -0.574714        -0.519540        -0.300088
 C        -1.522329         0.002998         0.259891
 C        -2.731282         0.806231         0.333495
 O        -2.356016         2.198339         0.283256
 C        -3.524426         0.606951         1.571459
 C        -4.340597        -0.606912         1.561118
 C        -5.424759        -0.612736         2.581938
 O        -4.217763        -1.374381         0.572050
 H         1.535699        -0.984248        -0.495273
 H         0.715273        -1.954272        -1.572338
 H         0.785218        -0.192753        -2.025312
 H        -3.473997         0.650090        -0.424937
 H        -1.997461         2.227864        -0.569356
 H        -2.845771         0.534781         2.387209
 H        -4.183578         1.501152         1.839698
 H        -5.287624        -0.732972         3.645912
 H        -6.118790         0.213037         2.261450
 H        -6.137883        -1.448664         2.365443
