19
Iteration:   559charge 0 multiplicity 1
 C         1.199014        -0.578639        -0.565038
 C        -0.137857        -0.171084        -0.154135
 C        -1.178962         0.375278         0.149446
 C        -2.595901         0.666445         0.530790
 O        -2.661353         2.112648         0.842526
 C        -3.400549        -0.185312         1.680549
 C        -4.658636        -0.704196         1.115372
 C        -5.813562        -0.769642         2.069567
 O        -4.732709        -1.119047        -0.059129
 H         1.824651         0.215188        -0.124373
 H         1.656946        -1.535246        -0.247205
 H         1.287814        -0.485775        -1.689945
 H        -3.159990         0.630476        -0.413649
 H        -2.178046         2.485993         0.145032
 H        -2.667252        -0.954360         1.936556
 H        -3.539274         0.565703         2.534943
 H        -6.078424         0.263159         2.118593
 H        -6.538834        -1.479968         1.696615
 H        -5.529974        -1.034439         3.111204
