19
Iteration:  4083
 C         0.722440        -1.320041         0.004879
 C        -0.217332        -0.297402         0.434835
 C        -1.294701         0.268389         0.377041
 C        -2.622272         0.799715         0.003898
 O        -2.613751         2.187027        -0.362186
 C        -3.648112         0.756829         1.320395
 C        -4.524500        -0.483683         1.380920
 C        -3.914369        -1.824748         1.559529
 O        -5.762924        -0.309107         1.114828
 H         1.183368        -1.260240        -1.032028
 H         1.611615        -1.539128         0.596742
 H         0.263918        -2.302683         0.128039
 H        -3.098495         0.180561        -0.715923
 H        -3.625562         2.379319        -0.431152
 H        -3.076934         0.823957         2.248643
 H        -4.257995         1.639298         1.149347
 H        -3.179873        -1.915448         0.629860
 H        -3.401345        -2.017014         2.574789
 H        -4.703724        -2.611088         1.369664
