19
Iteration:  1468charge 0 multiplicity 1
 C         0.916368        -0.838107        -0.122526
 C        -0.512862        -0.248230         0.153445
 C        -1.654633         0.165567         0.118489
 C        -2.799838         1.032783         0.335488
 O        -2.455715         2.494515         0.367173
 C        -3.662134         0.461916         1.387519
 C        -4.434017        -0.747762         1.103645
 C        -5.101692        -1.543999         2.248470
 O        -4.443876        -1.118214        -0.051434
 H         1.452512        -0.464750        -1.006321
 H         1.474813        -0.525183         0.724487
 H         0.825709        -1.868927        -0.193717
 H        -3.396938         0.934072        -0.580106
 H        -2.173248         2.755127         1.332616
 H        -3.075882         0.149302         2.251794
 H        -4.447346         1.135307         1.707442
 H        -4.479207        -1.409969         3.140928
 H        -6.171809        -1.299593         2.327813
 H        -4.887233        -2.630639         2.043779
