19
Iteration:  3496
 C         0.392404        -1.468400        -0.154934
 C        -0.712614        -0.498427        -0.106617
 C        -1.733254         0.175354        -0.203787
 C        -2.890444         1.063066         0.069818
 O        -2.511121         2.471076         0.294497
 C        -3.444033         0.761896         1.390668
 C        -4.294440        -0.504898         1.397761
 C        -4.375563        -1.363289         2.553957
 O        -4.626020        -0.931066         0.267961
 H        -0.266543        -2.450196        -0.166725
 H         0.961083        -1.379946        -1.137721
 H         1.076554        -1.546013         0.721627
 H        -3.610155         1.031334        -0.728055
 H        -1.749115         2.583028        -0.210694
 H        -2.721266         0.452523         2.139266
 H        -3.809487         1.770346         1.791695
 H        -3.398911        -1.453608         3.106219
 H        -5.190650        -1.038681         3.354049
 H        -4.673748        -2.400057         2.271460
