19
Iteration:  2753charge 0 multiplicity 1
 C         0.287042        -1.598873        -0.271979
 C        -0.604260        -0.413422        -0.280944
 C        -1.435352         0.445538         0.121961
 C        -2.703898         1.177322         0.252892
 O        -2.417282         2.558387         0.063040
 C        -3.648609         0.849293         1.592365
 C        -4.312683        -0.643990         1.327180
 C        -4.363110        -1.692810         2.429921
 O        -4.851455        -0.951851         0.323617
 H         0.592467        -1.746805         0.814251
 H        -0.155515        -2.535174        -0.713716
 H         1.229146        -1.431061        -0.862546
 H        -3.363919         0.887681        -0.655973
 H        -1.873637         2.856478         0.750911
 H        -3.254581         1.170591         2.631842
 H        -4.515481         1.455384         1.347070
 H        -4.375324        -1.197425         3.382983
 H        -5.322208        -2.063568         2.183181
 H        -3.555969        -2.379987         2.378164
