19
Iteration:  2285charge 0 multiplicity 1
 C         0.699585        -1.164277         0.020728
 C        -0.442372        -0.295164         0.205941
 C        -1.535664         0.165952         0.344789
 C        -2.798277         0.953433         0.212198
 O        -2.383446         2.298833        -0.014356
 C        -3.793317         0.771762         1.477329
 C        -4.534918        -0.550498         1.231596
 C        -3.921413        -1.903698         1.722164
 O        -5.486170        -0.581803         0.462135
 H         1.569141        -0.708193         0.663179
 H         0.603157        -2.218192         0.298587
 H         0.985107        -1.046101        -1.040921
 H        -3.250763         0.589005        -0.714524
 H        -1.605590         2.558022         0.605852
 H        -3.229991         0.815496         2.467261
 H        -4.482159         1.637008         1.518554
 H        -4.246014        -2.893037         1.416416
 H        -2.836974        -1.989402         1.744021
 H        -3.978766        -1.748041         2.810972
