19
Iteration:  2535charge 0 multiplicity 1
 C         0.297049        -1.468799        -0.216813
 C        -0.782826        -0.503166         0.003443
 C        -1.661524         0.210497         0.397620
 C        -2.804350         1.162750         0.260414
 O        -2.239947         2.578026         0.246346
 C        -4.009765         0.854147         1.248384
 C        -4.283211        -0.605373         1.131058
 C        -3.773316        -1.516379         2.225283
 O        -4.969869        -1.025728         0.302489
 H         0.848851        -1.497120         0.739256
 H        -0.257697        -2.409015        -0.262146
 H         0.997273        -1.343395        -1.036153
 H        -3.188550         1.024407        -0.748482
 H        -1.645257         2.764714         1.075204
 H        -3.704293         1.289301         2.214201
 H        -4.903875         1.255792         0.807255
 H        -4.432068        -2.453338         2.289152
 H        -2.739252        -1.861552         1.819864
 H        -3.680470        -1.019275         3.237530
