19
Iteration:  2781
 C         0.416821        -1.557425        -0.396068
 C        -0.510221        -0.431863        -0.052164
 C        -1.516622         0.283877         0.147236
 C        -2.759409         1.072081         0.163717
 O        -2.515206         2.518075         0.209965
 C        -3.573316         0.750465         1.414780
 C        -4.393791        -0.580553         1.338891
 C        -4.314421        -1.494122         2.574634
 O        -4.941726        -0.885774         0.197919
 H         0.938044        -2.083737         0.365561
 H        -0.109909        -2.243094        -1.046331
 H         1.127978        -1.078598        -1.069417
 H        -3.191868         0.937339        -0.787964
 H        -1.937236         2.730018         0.955447
 H        -2.856408         0.634946         2.188841
 H        -4.317370         1.545680         1.613270
 H        -4.617376        -0.825494         3.447156
 H        -4.978298        -2.334511         2.282177
 H        -3.213328        -1.714993         2.736555
