19
Iteration:  4958charge 0 multiplicity 1
 C         0.605668        -0.831943        -0.984002
 C        -0.618314        -0.611008        -0.312915
 C        -1.659519        -0.164155         0.042784
 C        -2.757083         0.820913         0.319747
 O        -2.362503         2.249234         0.296442
 C        -3.411839         0.682327         1.640406
 C        -4.341832        -0.547878         1.502773
 C        -5.396495        -0.642679         2.492460
 O        -4.219696        -1.426914         0.609739
 H         1.542509        -0.842403        -0.323488
 H         0.609308        -1.787326        -1.505418
 H         0.656027        -0.053517        -1.733400
 H        -3.467221         0.545794        -0.556237
 H        -1.757267         2.514741        -0.393235
 H        -2.652413         0.596315         2.481291
 H        -4.012546         1.526434         1.929551
 H        -4.847281        -0.688519         3.444322
 H        -6.077253         0.214638         2.613997
 H        -5.971048        -1.503250         2.654453
