19
Iteration:  3214
 C         0.629972        -1.216046        -0.635274
 C        -0.539607        -0.350009        -0.480788
 C        -1.581503         0.164304        -0.180221
 C        -2.779894         0.987347         0.192909
 O        -2.323518         2.405238         0.447216
 C        -3.441410         0.567059         1.524276
 C        -4.443319        -0.589251         1.444390
 C        -5.278011        -0.999951         2.676235
 O        -4.395863        -1.306321         0.479885
 H         0.803153        -2.033541         0.078927
 H         0.695590        -1.668668        -1.622707
 H         1.523109        -0.622880        -0.554674
 H        -3.463365         0.922005        -0.586224
 H        -1.898257         2.712494        -0.326196
 H        -2.682957         0.217956         2.229019
 H        -3.967371         1.390360         1.965429
 H        -4.591540        -0.997145         3.568201
 H        -6.053501        -0.223970         2.953581
 H        -5.899994        -1.870650         2.477730
