19
Iteration:   721charge 0 multiplicity 1
 C         1.299558        -0.381969        -0.451194
 C        -0.055713         0.122626        -0.152722
 C        -1.220513         0.235003         0.144316
 C        -2.600038         0.518068         0.478467
 O        -2.665030         1.945056         0.968193
 C        -3.224347        -0.432677         1.510517
 C        -4.619175        -0.669998         1.020360
 C        -5.756582        -0.276399         1.902079
 O        -4.976463        -1.393165         0.095842
 H         2.018940         0.395026        -0.464005
 H         1.675594        -1.136935         0.247519
 H         1.296467        -0.804430        -1.478276
 H        -3.103593         0.694351        -0.454334
 H        -3.297245         2.442914         0.436946
 H        -2.809684        -1.371520         1.845015
 H        -3.287896         0.212780         2.373921
 H        -5.588152         0.690313         2.479653
 H        -6.727710        -0.130421         1.345882
 H        -6.052894        -1.051149         2.746077
