19
Iteration:  1180charge 0 multiplicity 1
 C         1.413738        -0.050704         0.042220
 C        -0.033837        -0.069501         0.045672
 C        -1.214933         0.073830         0.101707
 C        -2.589820         0.429432         0.092670
 O        -2.677975         1.845635         0.047595
 C        -3.338126        -0.172706         1.376885
 C        -4.720021        -0.620693         1.238838
 C        -5.547493        -1.200057         2.476796
 O        -5.233797        -0.608797         0.095089
 H         1.877656         0.555397        -0.731236
 H         1.714090         0.258458         1.048891
 H         1.849329        -1.065894        -0.007177
 H        -3.087543         0.181779        -0.835842
 H        -2.586189         2.136048         0.924922
 H        -2.777012        -1.051228         1.660676
 H        -3.033438         0.539758         2.171184
 H        -6.033108        -0.305690         2.759961
 H        -6.263562        -2.041753         2.294569
 H        -4.989724        -1.498543         3.419261
