19
Iteration:  2999charge 0 multiplicity 1
 C         0.626749        -1.286075        -0.737629
 C        -0.260153        -0.231308        -0.327340
 C        -1.336296         0.246627        -0.002150
 C        -2.659275         0.854347         0.300141
 O        -2.659406         2.306474         0.180761
 C        -3.433551         0.520599         1.641087
 C        -4.427732        -0.585477         1.461410
 C        -5.144966        -1.068306         2.708500
 O        -4.641794        -1.003234         0.287392
 H         0.589631        -1.928509         0.195710
 H         0.050570        -1.947852        -1.418532
 H         1.753071        -1.102917        -0.892737
 H        -3.434210         0.475165        -0.420570
 H        -1.981983         2.586418         0.800489
 H        -2.845785         0.155757         2.460064
 H        -4.027568         1.482783         1.778213
 H        -4.809203        -0.512499         3.583060
 H        -6.228728        -1.159666         2.578553
 H        -4.881052        -2.118949         2.816127
