19
Iteration:  2225
 C         0.908798        -1.139732        -0.058154
 C        -0.420136        -0.525565         0.308662
 C        -1.433469         0.150365         0.265746
 C        -2.694724         1.008709         0.203770
 O        -2.381191         2.424723         0.227806
 C        -3.951586         0.757655         1.084995
 C        -4.566428        -0.537341         1.150543
 C        -3.920256        -1.794948         1.832914
 O        -5.658539        -0.695268         0.608041
 H         1.619459        -0.621257         0.529533
 H         1.022411        -2.182634         0.297004
 H         1.166034        -1.115912        -1.128696
 H        -3.041593         0.785283        -0.823998
 H        -1.849892         2.403531         1.120668
 H        -3.737946         0.891540         2.130734
 H        -4.624694         1.561950         0.770209
 H        -4.581779        -2.228634         2.652412
 H        -3.845092        -2.455468         0.907722
 H        -2.861507        -1.543557         2.233319
