19
Iteration:  4101
 C         0.710173        -1.294758         0.032581
 C        -0.258210        -0.296162         0.509389
 C        -1.247959         0.353155         0.229537
 C        -2.591958         0.812011         0.049661
 O        -2.654850         2.179940        -0.315217
 C        -3.606765         0.668864         1.275867
 C        -4.484234        -0.497348         1.326021
 C        -4.054318        -1.936626         1.572606
 O        -5.674499        -0.227878         1.162855
 H         0.887704        -0.809141        -0.888509
 H         1.693770        -1.429392         0.554437
 H         0.173390        -2.316016        -0.085114
 H        -3.180560        -0.040390        -0.689506
 H        -3.343064         2.373906        -1.070245
 H        -2.968974         0.926167         2.142680
 H        -4.290135         1.538179         1.005247
 H        -3.225121        -2.293614         0.973175
 H        -3.595260        -1.993675         2.540406
 H        -4.777797        -2.683830         1.550353
