19
Iteration:  2555
 C         0.333815        -1.563075        -0.207896
 C        -0.839915        -0.652535         0.038721
 C        -1.616335         0.270410         0.247076
 C        -2.742180         1.293261         0.230547
 O        -2.368764         2.606435         0.338090
 C        -3.946128         0.935762         1.184868
 C        -4.326090        -0.627224         1.124209
 C        -3.730866        -1.563495         2.360020
 O        -4.972580        -1.049648         0.255732
 H         1.019106        -1.485356         0.672175
 H         0.107245        -2.634284        -0.468835
 H         0.880718        -1.035327        -1.047436
 H        -3.227864         1.097028        -0.775256
 H        -1.727000         2.626041         1.099772
 H        -3.730569         1.132238         2.287316
 H        -4.647248         1.668446         0.873513
 H        -4.114937        -2.582907         2.154851
 H        -2.665621        -1.537670         2.321001
 H        -4.301676        -1.085477         3.160625
