19
Iteration:   673
 C         1.228874        -0.323930        -0.589814
 C        -0.116266        -0.165145        -0.133823
 C        -1.201996         0.216672         0.244891
 C        -2.569240         0.617880         0.466345
 O        -2.627661         2.035046         0.899828
 C        -3.261033        -0.286782         1.515103
 C        -4.702850        -0.675719         1.087938
 C        -5.876723        -0.358637         1.867215
 O        -4.780081        -1.378703         0.104167
 H         1.954118         0.547282        -0.429508
 H         1.659264        -1.192721        -0.032142
 H         1.313521        -0.581749        -1.657943
 H        -3.064104         0.593971        -0.532909
 H        -2.909811         2.085655         1.913664
 H        -2.596134        -1.180515         1.693926
 H        -3.310621         0.158454         2.537824
 H        -6.283077         0.678028         2.083853
 H        -6.741793        -0.934438         1.521620
 H        -5.765914        -0.814817         2.861159
