19
Iteration:  3247
 C         0.592336        -1.286269        -0.734052
 C        -0.687386        -0.586338        -0.459539
 C        -1.407924         0.296903         0.007723
 C        -2.657068         1.024970         0.363759
 O        -2.492825         2.498735         0.219388
 C        -3.401752         0.646943         1.697893
 C        -4.244043        -0.634318         1.563684
 C        -5.380295        -1.082021         2.555385
 O        -4.352700        -1.230754         0.418503
 H         0.861373        -2.158716        -0.099882
 H         0.681936        -1.551650        -1.777697
 H         1.351328        -0.511358        -0.677188
 H        -3.265627         0.772671        -0.462959
 H        -2.041318         2.620791        -0.617616
 H        -2.734061         0.541844         2.572733
 H        -4.242359         1.263595         1.889507
 H        -5.209513        -1.690924         3.484592
 H        -5.851385        -0.161301         2.988828
 H        -6.034032        -1.795005         2.071600
