19
Iteration:  2523charge 0 multiplicity 1
 C         0.215315        -1.426475        -0.179306
 C        -0.719789        -0.372661         0.069590
 C        -1.713683         0.182702         0.349037
 C        -2.746969         1.153259         0.292417
 O        -2.256185         2.457302         0.222282
 C        -3.929391         0.922345         1.205703
 C        -4.334364        -0.581081         1.222736
 C        -3.735443        -1.541927         2.198832
 O        -5.002842        -1.046342         0.250333
 H         0.893907        -1.521343         0.699702
 H        -0.245735        -2.430649        -0.325914
 H         0.877050        -1.272844        -1.070150
 H        -3.224442         1.008147        -0.709496
 H        -1.765331         2.514031         1.016349
 H        -3.792427         1.045759         2.318181
 H        -4.643742         1.642619         0.925046
 H        -4.536477        -2.323200         2.397803
 H        -2.869071        -2.003470         1.641418
 H        -3.256847        -1.077847         3.146364
