19
Iteration:  3025charge 0 multiplicity 1
 C         0.640448        -1.228654        -0.784761
 C        -0.514308        -0.506384        -0.242760
 C        -1.305385         0.356630         0.191678
 C        -2.630170         0.967235         0.256133
 O        -2.658739         2.379392         0.060864
 C        -3.253287         0.492989         1.673934
 C        -4.358684        -0.681539         1.430709
 C        -5.209955        -1.100507         2.631725
 O        -4.685694        -1.033280         0.392927
 H         1.004650        -1.968582        -0.056092
 H         0.416707        -1.754339        -1.733822
 H         1.452207        -0.491311        -0.843813
 H        -3.299471         0.524623        -0.425247
 H        -1.882133         2.748042         0.523951
 H        -2.525457         0.229320         2.464926
 H        -3.853479         1.419953         1.886274
 H        -5.089446        -0.439410         3.544949
 H        -6.255916        -0.995717         2.246152
 H        -5.142950        -2.228365         2.758854
