19
Iteration:  4124charge 0 multiplicity 1
 C         0.829144        -1.246120         0.074455
 C        -0.362064        -0.393661         0.345615
 C        -1.301886         0.385438         0.262881
 C        -2.654711         0.893232         0.074064
 O        -2.650448         2.263199        -0.397258
 C        -3.468977         0.619873         1.314865
 C        -4.478814        -0.519425         1.298054
 C        -4.132653        -1.955979         1.626429
 O        -5.742074        -0.268993         1.191190
 H         1.373993        -0.929441        -0.808744
 H         1.488554        -1.201886         0.970365
 H         0.428118        -2.314282         0.084193
 H        -3.074541         0.179750        -0.864028
 H        -2.669874         2.283190        -1.314863
 H        -2.655913         0.407611         2.047992
 H        -4.014487         1.576176         1.572119
 H        -3.303855        -2.409529         1.025731
 H        -3.788715        -2.069033         2.655687
 H        -4.969354        -2.612147         1.508596
