19
Iteration:  1763
 C         0.392609        -1.355363        -0.120849
 C        -0.504497        -0.186452         0.249446
 C        -1.585364         0.398369         0.264968
 C        -2.825143         1.202779         0.233889
 O        -2.477732         2.513781         0.551476
 C        -3.840406         0.693744         1.257416
 C        -4.290534        -0.731666         1.024857
 C        -4.384038        -1.717434         2.213819
 O        -4.626289        -1.038976        -0.116274
 H         1.157223        -0.910730        -0.872274
 H         1.023738        -1.731873         0.723972
 H        -0.121203        -2.226335        -0.533161
 H        -3.352203         1.166384        -0.748000
 H        -1.833368         2.377538         1.328011
 H        -3.475590         0.690446         2.327776
 H        -4.662140         1.464124         1.213553
 H        -3.501582        -2.321404         2.181431
 H        -4.150848        -1.182757         3.143379
 H        -5.237137        -2.374111         2.291098
