19
Iteration:   428
 C         1.170660        -0.725814        -0.155288
 C        -0.176883        -0.074461        -0.015136
 C        -1.331146         0.305352         0.010597
 C        -2.671999         0.699584         0.302139
 O        -2.621317         2.070822         0.516521
 C        -3.266128        -0.058668         1.504681
 C        -4.655001        -0.554833         1.116492
 C        -5.192365        -1.368069         2.236955
 O        -5.192591        -0.553114        -0.001926
 H         1.923404        -0.207553         0.458419
 H         1.240433        -1.812916         0.092120
 H         1.627241        -0.564082        -1.184379
 H        -3.311687         0.524989        -0.566149
 H        -3.619723         2.376733         0.645112
 H        -2.575104        -0.811889         1.691729
 H        -3.217348         0.479846         2.509742
 H        -5.397766        -0.793540         3.130924
 H        -6.135382        -1.888004         2.040350
 H        -4.316289        -2.069469         2.444618
