19
Iteration:  4876
 C         0.628104        -1.203331        -1.105343
 C        -0.293038        -0.307059        -0.425523
 C        -1.267445         0.286939         0.052402
 C        -2.581000         0.939118         0.276325
 O        -2.493053         2.309539         0.329572
 C        -3.448012         0.505608         1.566870
 C        -4.531789        -0.638122         1.592160
 C        -5.594387        -0.758077         2.666399
 O        -4.413864        -1.470890         0.663806
 H         1.531096        -1.173389        -0.589389
 H         0.190919        -2.232336        -1.103988
 H         0.802929        -0.886468        -2.162868
 H        -3.082907         0.535622        -0.690093
 H        -1.617433         2.626294         0.271170
 H        -2.833549         0.427915         2.477131
 H        -3.962989         1.526836         1.511614
 H        -5.197215        -0.465649         3.695876
 H        -6.266248         0.142799         2.317915
 H        -6.248302        -1.661849         2.429379
