19
Iteration:  3915charge 0 multiplicity 1
 C         0.520958        -1.318415         0.399165
 C        -0.569327        -0.531245        -0.161974
 C        -1.554846         0.182053        -0.185953
 C        -2.816417         0.940307        -0.101831
 O        -2.366124         2.365157         0.090690
 C        -3.666807         0.750686         1.172888
 C        -4.405588        -0.591839         1.317745
 C        -3.592761        -1.817933         1.887188
 O        -5.600523        -0.405775         1.050148
 H         1.188906        -1.812371        -0.281541
 H         1.112121        -0.644613         1.066302
 H        -0.017661        -2.061360         1.097284
 H        -3.372351         0.838001        -1.025440
 H        -2.983257         2.976366        -0.427424
 H        -2.960175         0.935656         2.008334
 H        -4.318213         1.598895         0.981866
 H        -3.376744        -2.520078         0.953489
 H        -2.696708        -1.473960         2.444947
 H        -4.387345        -2.350677         2.526146
