19
Iteration:  2614charge 0 multiplicity 1
 C         0.133394        -1.545644        -0.032609
 C        -0.738942        -0.385541        -0.123090
 C        -1.715048         0.315889        -0.037282
 C        -2.794922         1.285220         0.096812
 O        -2.258876         2.607941         0.368736
 C        -3.776894         0.754765         1.287410
 C        -4.246851        -0.686262         1.220498
 C        -3.962874        -1.578708         2.381567
 O        -4.840647        -1.045457         0.275877
 H         0.642758        -1.624388         0.918486
 H        -0.391595        -2.452226        -0.259371
 H         0.874151        -1.465130        -0.794871
 H        -3.403284         1.366365        -0.765998
 H        -1.545139         2.511715         1.074254
 H        -3.282215         1.037652         2.178204
 H        -4.649371         1.378807         1.006398
 H        -3.291804        -2.420599         2.133928
 H        -3.539850        -1.037552         3.313018
 H        -4.866433        -2.016134         2.862832
