19
Iteration:  2315
 C         0.758742        -1.206121         0.161555
 C        -0.518065        -0.383605         0.171247
 C        -1.621099         0.118361         0.118098
 C        -2.896578         1.002363         0.163890
 O        -2.550827         2.356633         0.044370
 C        -3.632789         0.668487         1.496186
 C        -4.400510        -0.550066         1.227231
 C        -3.930104        -1.809143         1.761385
 O        -5.353407        -0.505158         0.470242
 H         1.546975        -0.838822         0.797649
 H         0.634303        -2.259082         0.357761
 H         1.084080        -1.134885        -0.874021
 H        -3.561008         0.750719        -0.643847
 H        -1.712128         2.540637         0.568838
 H        -3.046847         0.732474         2.435759
 H        -4.443010         1.399037         1.568114
 H        -3.770582        -2.559925         0.979955
 H        -3.032036        -1.819599         2.376691
 H        -4.647543        -2.312802         2.513787
