19
Iteration:  2621
 C         0.122827        -1.560713        -0.038137
 C        -0.741454        -0.373519        -0.171264
 C        -1.747374         0.349071        -0.047394
 C        -2.770649         1.317455         0.162968
 O        -2.243904         2.593943         0.322769
 C        -3.746647         0.721636         1.286100
 C        -4.270364        -0.607388         1.293433
 C        -3.982817        -1.602023         2.387086
 O        -4.824631        -1.092875         0.241750
 H         0.556753        -1.538971         1.021080
 H        -0.328093        -2.607794        -0.087335
 H         1.072695        -1.511936        -0.683258
 H        -3.476024         1.564210        -0.698561
 H        -1.512425         2.620255         0.915904
 H        -3.523467         1.091719         2.360971
 H        -4.604724         1.339005         1.129911
 H        -3.247871        -2.385202         2.101701
 H        -3.578652        -1.187982         3.293534
 H        -4.893655        -2.140402         2.637131
