19
Iteration:  4512charge 0 multiplicity 1
 C         0.104965        -1.451582         0.251844
 C        -0.893375        -0.488692         0.009113
 C        -1.752030         0.342238        -0.298749
 C        -2.904018         1.214995        -0.087306
 O        -2.300108         2.528467         0.162529
 C        -3.440285         0.735703         1.330360
 C        -4.119877        -0.644164         1.246054
 C        -3.740067        -1.688493         2.289091
 O        -5.156390        -0.833794         0.533020
 H         1.010863        -0.816807         0.453549
 H        -0.130496        -2.029644         1.177919
 H         0.314172        -2.094776        -0.646928
 H        -3.719057         1.251698        -0.829105
 H        -1.424509         2.271060        -0.097850
 H        -2.590427         0.675779         2.027975
 H        -4.269026         1.449473         1.681351
 H        -2.821354        -2.261286         2.159782
 H        -3.810312        -1.166886         3.278897
 H        -4.605645        -2.433521         2.283119
