19
Iteration:  2140charge 0 multiplicity 1
 C         0.690040        -1.104660         0.354711
 C        -0.651723        -0.582393         0.138996
 C        -1.688933         0.122831        -0.004814
 C        -2.725066         1.186184        -0.017005
 O        -2.280156         2.442858         0.465067
 C        -3.845453         0.741987         1.115224
 C        -4.462979        -0.564413         1.114938
 C        -3.719350        -1.787395         1.652385
 O        -5.534601        -0.779810         0.644992
 H         1.447885        -0.357981         0.636638
 H         0.661652        -2.000724         1.020395
 H         1.036450        -1.470651        -0.638219
 H        -3.403933         1.135218        -0.846759
 H        -1.385039         2.239133         0.648493
 H        -3.327717         0.765896         2.106368
 H        -4.674869         1.473822         1.027647
 H        -2.870048        -1.624779         2.252244
 H        -4.379712        -2.175590         2.376229
 H        -3.529730        -2.543558         0.925289
