19
Iteration:  2160
 C         0.755121        -1.130091         0.256462
 C        -0.560079        -0.456443         0.144272
 C        -1.583760         0.191182        -0.068544
 C        -2.728197         1.048630         0.087474
 O        -2.181670         2.401699         0.424527
 C        -3.851125         0.834256         1.130690
 C        -4.592927        -0.652310         1.086938
 C        -3.803062        -1.775973         1.748551
 O        -5.678920        -0.829386         0.649516
 H         1.420380        -0.414440         0.608871
 H         0.517106        -1.912413         0.973012
 H         1.319891        -1.366652        -0.640691
 H        -3.323783         1.255510        -0.785043
 H        -1.294821         2.383587         0.957804
 H        -3.585130         1.002358         2.167241
 H        -4.640080         1.534629         0.788949
 H        -3.013018        -1.456324         2.471521
 H        -4.531913        -2.554465         2.147744
 H        -3.036074        -2.152101         1.016332
