19
Iteration:  3530charge 0 multiplicity 1
 C         0.292191        -1.547896        -0.276314
 C        -0.678022        -0.504102         0.039111
 C        -1.416391         0.432387         0.093324
 C        -2.690027         1.137647         0.169350
 O        -2.554062         2.644622         0.053852
 C        -3.460792         0.695945         1.413601
 C        -4.235550        -0.739655         1.239874
 C        -4.356184        -1.471091         2.611558
 O        -4.908957        -0.963941         0.307807
 H        -0.459472        -2.427921        -0.511909
 H         0.724024        -1.404585        -1.309432
 H         1.087525        -1.878396         0.464793
 H        -3.361011         0.770001        -0.582166
 H        -2.002211         2.633012        -0.718641
 H        -2.777441         0.574473         2.274416
 H        -4.243707         1.533125         1.577436
 H        -3.410391        -1.583980         3.188459
 H        -4.854198        -0.582795         3.204599
 H        -5.027569        -2.365899         2.646116
