19
Iteration:  1806charge 0 multiplicity 1
 C         0.603210        -1.272983        -0.156598
 C        -0.685465        -0.541913         0.120927
 C        -1.524754         0.370635         0.347584
 C        -2.738855         1.249474         0.310537
 O        -2.443436         2.664638         0.664827
 C        -3.863538         0.769039         1.177196
 C        -4.411472        -0.705547         0.965648
 C        -4.235835        -1.577295         2.170715
 O        -4.867695        -1.284900        -0.064291
 H         1.406358        -0.763982        -0.768997
 H         1.071710        -1.596647         0.780251
 H         0.435522        -2.210634        -0.640360
 H        -2.971813         1.338859        -0.780507
 H        -1.884717         2.804874         1.524413
 H        -3.332105         0.948149         2.110558
 H        -4.795661         1.310782         1.151209
 H        -3.378652        -1.456656         2.773505
 H        -5.083917        -1.244344         2.774448
 H        -4.485103        -2.520330         1.741542
