19
Iteration:  4159charge 0 multiplicity 1
 C         0.930910        -1.136554         0.287889
 C        -0.316425        -0.446356        -0.035958
 C        -1.369926         0.164804        -0.042426
 C        -2.706122         0.789766         0.086468
 O        -2.717913         2.206811        -0.254816
 C        -3.472707         0.636347         1.429041
 C        -4.569209        -0.441744         1.385617
 C        -4.061320        -1.884286         1.612842
 O        -5.762503        -0.193767         1.118596
 H         1.905601        -0.967049        -0.267970
 H         1.165835        -0.869039         1.324506
 H         0.836518        -2.239977         0.222758
 H        -3.548301         0.144804        -0.539357
 H        -1.874633         2.340972        -0.616497
 H        -2.755175         0.422146         2.267617
 H        -3.874640         1.626537         1.604226
 H        -3.105990        -1.991561         0.988657
 H        -3.768105        -1.986485         2.700641
 H        -4.833523        -2.660921         1.335528
