19
Iteration:  3166
 C         0.641963        -0.965006        -0.603367
 C        -0.666790        -0.438785        -0.268556
 C        -1.737663         0.126858        -0.295194
 C        -2.744495         1.052958         0.164863
 O        -2.227843         2.301331         0.603693
 C        -3.443312         0.501823         1.353297
 C        -4.290914        -0.780727         1.372923
 C        -5.023138        -0.715544         2.683550
 O        -4.690992        -1.470285         0.415136
 H         0.892403        -1.818256         0.078582
 H         0.597963        -1.531364        -1.585044
 H         1.577765        -0.341484        -0.517088
 H        -3.375776         1.299665        -0.726387
 H        -1.247031         2.357750         0.345379
 H        -2.712681         0.473600         2.133273
 H        -4.263665         1.255782         1.667018
 H        -4.425095        -0.363044         3.505240
 H        -5.935346        -0.156585         2.648592
 H        -5.496506        -1.697278         2.774352
