19
Iteration:  2975charge 0 multiplicity 1
 C         0.648147        -1.287627        -0.574346
 C        -0.311037        -0.202064        -0.375773
 C        -1.426204         0.214639        -0.055815
 C        -2.698523         0.890061         0.309817
 O        -2.559968         2.345545         0.261811
 C        -3.403132         0.531851         1.520820
 C        -4.457554        -0.514109         1.403195
 C        -5.036245        -1.084219         2.704789
 O        -4.777090        -1.114775         0.305992
 H         0.748760        -2.072906         0.210752
 H         0.106919        -1.812056        -1.382203
 H         1.659168        -0.936909        -0.885671
 H        -3.475108         0.652510        -0.531484
 H        -1.777828         2.549313         0.744075
 H        -2.692420        -0.050230         2.160866
 H        -3.960865         1.380462         1.922131
 H        -4.678246        -0.422288         3.456778
 H        -6.089074        -1.346298         2.763459
 H        -4.499639        -2.030813         2.766520
