19
Iteration:   830
 C         1.468405        -0.180659        -0.102662
 C         0.098454         0.196487         0.051379
 C        -1.113323         0.257196         0.181580
 C        -2.600931         0.369366         0.284994
 O        -2.959989         1.724503         0.737643
 C        -3.225684        -0.799281         0.995328
 C        -4.739888        -0.742009         1.042404
 C        -5.340464         0.010910         2.240893
 O        -5.419707        -1.131015         0.075616
 H         1.963667         0.698103        -0.463545
 H         1.901874        -0.643098         0.798282
 H         1.667980        -0.844708        -0.985403
 H        -3.018151         0.267809        -0.760274
 H        -3.148065         1.744728         1.661222
 H        -3.008926        -1.601198         0.319555
 H        -2.746967        -1.107576         1.934037
 H        -5.062844         1.053851         2.174971
 H        -6.447532         0.044195         2.277332
 H        -4.879298        -0.299916         3.218057
