19
Iteration:  1776charge 0 multiplicity 1
 C         0.441627        -1.259570        -0.142583
 C        -0.565934        -0.337441         0.263600
 C        -1.545164         0.419526         0.231758
 C        -2.751171         1.154392         0.276372
 O        -2.440714         2.596270         0.597149
 C        -3.864125         0.602447         1.209455
 C        -4.361796        -0.789934         0.999545
 C        -4.297752        -1.654650         2.278311
 O        -4.708650        -1.040460        -0.126310
 H         1.166452        -0.990560        -0.970253
 H         0.969603        -1.661012         0.782808
 H        -0.235656        -2.062573        -0.602131
 H        -3.034580         1.242681        -0.759077
 H        -1.937135         2.679156         1.369561
 H        -3.484343         0.960776         2.217970
 H        -4.881502         1.103175         0.942151
 H        -3.323628        -2.206465         2.371287
 H        -4.644547        -1.004971         3.085616
 H        -5.136926        -2.378464         2.136637
