19
Iteration:  3865charge 0 multiplicity 1
 C         0.468266        -1.496916         0.089946
 C        -0.692820        -0.585535         0.349820
 C        -1.596842         0.255471         0.248345
 C        -2.797944         1.116560         0.126540
 O        -2.370559         2.392694        -0.353889
 C        -3.686421         0.951216         1.384620
 C        -4.329979        -0.532048         1.314931
 C        -3.585863        -1.780736         1.752166
 O        -5.463148        -0.657170         0.887073
 H         0.331283        -1.641849        -1.016337
 H         1.423333        -0.971351         0.225509
 H         0.419559        -2.471089         0.554911
 H        -3.421635         0.687707        -0.706040
 H        -3.167069         3.006855        -0.313487
 H        -3.167258         1.028886         2.340933
 H        -4.483343         1.727870         1.290900
 H        -3.219305        -2.098307         0.840306
 H        -2.766325        -1.500041         2.376146
 H        -4.240571        -2.475844         2.205742
