19
Iteration:  4304charge 0 multiplicity 1
 C         0.920647        -1.179187         0.081528
 C        -0.314815        -0.419412        -0.034447
 C        -1.457444         0.033984         0.049833
 C        -2.747764         0.759595         0.079993
 O        -2.337639         2.195139        -0.000191
 C        -3.744854         0.756889         1.254984
 C        -4.741451        -0.496367         1.334301
 C        -3.828161        -1.566958         1.714454
 O        -5.952559        -0.437201         1.064527
 H         1.773134        -0.567732        -0.353051
 H         1.296034        -1.424368         1.093925
 H         0.988694        -2.016817        -0.591444
 H        -3.472223         0.421412        -0.876747
 H        -1.387579         2.174480         0.332967
 H        -3.214876         0.745930         2.192370
 H        -4.243933         1.727862         1.106914
 H        -2.857893        -1.619511         1.188130
 H        -3.404844        -1.458285         2.762439
 H        -4.189112        -2.575630         1.874619
