19
Iteration:  3753
 C         0.443735        -1.480865        -0.006694
 C        -0.737519        -0.619013        -0.059895
 C        -1.572486         0.231146         0.150300
 C        -2.751284         1.118553        -0.065274
 O        -2.383456         2.468710         0.105751
 C        -3.664080         0.845713         1.092827
 C        -4.272805        -0.576108         1.327069
 C        -3.795221        -1.572922         2.279478
 O        -5.386465        -0.788425         0.744762
 H         0.706213        -2.255366        -0.698740
 H         1.357733        -0.814535         0.032441
 H         0.417042        -1.990413         1.049125
 H        -3.198660         1.026679        -1.012225
 H        -2.488202         2.930793        -0.683172
 H        -3.002686         1.090546         1.982850
 H        -4.415453         1.668856         1.040720
 H        -2.767190        -1.938505         2.181824
 H        -4.007711        -1.284879         3.296200
 H        -4.378970        -2.483869         2.109150
