19
Iteration:   359
 C         1.260280        -0.675068        -0.030473
 C        -0.042688        -0.105330        -0.050565
 C        -1.200683         0.267981         0.014987
 C        -2.587866         0.665325         0.246200
 O        -2.738617         1.994869         0.215076
 C        -3.212293        -0.037233         1.422916
 C        -4.720291        -0.549358         1.190208
 C        -5.094386        -1.684989         2.102353
 O        -5.528167        -0.155392         0.382562
 H         1.912330        -0.175325         0.744563
 H         1.288366        -1.777991         0.155323
 H         1.850653        -0.396960        -0.941347
 H        -3.249390         0.335365        -0.610850
 H        -3.086412         2.443043         0.923425
 H        -2.746221        -0.997433         1.805757
 H        -3.187655         0.611460         2.310438
 H        -5.202352        -1.397275         3.155777
 H        -6.094929        -2.001908         1.764408
 H        -4.333087        -2.443937         1.885790
