19
Iteration:  4256
 C         0.826689        -0.758689         0.139044
 C        -0.616403        -0.649273         0.176350
 C        -1.707529        -0.117512         0.025209
 C        -2.748768         0.909177        -0.038378
 O        -2.129031         2.228441        -0.222780
 C        -3.612260         0.755552         1.322692
 C        -4.490702        -0.489696         1.421828
 C        -4.102557        -1.981552         1.666843
 O        -5.688130        -0.329625         1.128137
 H         1.398317         0.056673        -0.390489
 H         1.191599        -0.745993         1.177418
 H         1.237562        -1.691367        -0.325038
 H        -3.457712         0.744282        -0.863804
 H        -1.271583         2.143853         0.160729
 H        -2.758180         0.877947         2.096306
 H        -4.320869         1.594458         1.333243
 H        -3.138742        -2.251615         1.195403
 H        -3.800944        -2.221491         2.666809
 H        -4.893595        -2.707674         1.427326
