19
Iteration:  1858
 C         0.550831        -1.238031        -0.024910
 C        -0.586778        -0.286619         0.150469
 C        -1.700794         0.198319         0.157312
 C        -2.792075         1.171548         0.202913
 O        -2.239776         2.403284         0.674013
 C        -4.144599         0.824522         1.169550
 C        -4.407156        -0.615877         1.029320
 C        -4.047847        -1.668855         2.161421
 O        -4.867490        -1.064705        -0.003791
 H         1.324858        -0.593427        -0.464110
 H         0.989830        -1.624943         0.872451
 H         0.401156        -2.100128        -0.625926
 H        -3.093429         1.338582        -0.871229
 H        -1.652851         2.259240         1.481130
 H        -3.839121         1.263556         2.105096
 H        -5.094569         1.175699         0.867212
 H        -3.949205        -1.096898         3.135657
 H        -4.994031        -2.300905         2.323726
 H        -3.109339        -2.172686         1.807600
