19
Iteration:   143charge 0 multiplicity 1
 C         1.537888         0.105751         0.092169
 C         0.073735         0.015970         0.091667
 C        -1.133860        -0.094767        -0.042008
 C        -2.599858         0.009987        -0.015785
 O        -3.077847         1.344022        -0.374134
 C        -3.231192        -0.547875         1.315049
 C        -4.680217        -0.305016         1.457530
 C        -5.496874        -1.634509         1.584212
 O        -5.238546         0.781758         1.483811
 H         1.957583         0.292850         1.046684
 H         1.849192        -0.870934        -0.233594
 H         1.897895         0.684945        -0.742556
 H        -3.062789        -0.643370        -0.749277
 H        -2.298116         1.847787         0.033391
 H        -3.074670        -1.578284         1.473921
 H        -2.791077        -0.115979         2.255314
 H        -5.672263        -1.904582         2.588948
 H        -6.515654        -1.587041         1.270536
 H        -5.156255        -2.517352         1.040997
