19
Iteration:  4670
 C         0.429516        -1.383821        -0.729611
 C        -0.582011        -0.421519        -0.278114
 C        -1.493447         0.164277         0.258605
 C        -2.650734         1.003004         0.352574
 O        -2.401204         2.394163         0.288625
 C        -3.832486         0.849873         1.368919
 C        -4.382685        -0.579340         1.374605
 C        -4.689517        -1.100230         2.715192
 O        -4.550170        -1.245469         0.314664
 H         1.449038        -1.048331        -0.321394
 H         0.240790        -2.423574        -0.338251
 H         0.638413        -1.464000        -1.841342
 H        -3.059681         0.646134        -0.572074
 H        -1.714099         2.390868        -0.452529
 H        -3.389166         1.110084         2.343480
 H        -4.544503         1.649447         1.243294
 H        -3.752959        -1.078494         3.366834
 H        -5.349187        -0.287168         3.046539
 H        -5.140650        -2.087243         2.644471
