19
Iteration:   532
 C         1.099228        -0.587127        -0.491783
 C        -0.150756        -0.086752        -0.101707
 C        -1.272314         0.147354         0.235548
 C        -2.575402         0.722843         0.448044
 O        -2.696522         2.121660         0.734424
 C        -3.308411        -0.067618         1.560235
 C        -4.600113        -0.723558         1.069156
 C        -5.654805        -0.849859         2.119013
 O        -4.811811        -1.038670        -0.072602
 H         1.892846         0.061356        -0.076264
 H         1.348664        -1.583098        -0.152119
 H         1.235441        -0.518200        -1.550214
 H        -3.138952         0.704440        -0.506947
 H        -2.455381         2.226862         1.627145
 H        -2.464771        -0.702879         1.861421
 H        -3.440659         0.614988         2.366264
 H        -5.817768         0.197794         2.476084
 H        -6.500184        -1.485869         1.808718
 H        -5.243927        -1.339258         3.001043
