19
Iteration:  3872
 C         0.486460        -1.477425         0.136178
 C        -0.665076        -0.582925         0.342938
 C        -1.583144         0.181626         0.109090
 C        -2.780153         1.033658         0.099756
 O        -2.381650         2.456969        -0.285081
 C        -3.628076         0.958090         1.366059
 C        -4.352539        -0.432398         1.310613
 C        -3.588844        -1.727026         1.764661
 O        -5.537924        -0.703685         0.896993
 H         0.400174        -1.560664        -0.917357
 H         1.435195        -0.941969         0.287350
 H         0.378508        -2.476062         0.655516
 H        -3.543269         0.606730        -0.672349
 H        -3.298297         2.942480        -0.257721
 H        -2.951858         0.881650         2.250237
 H        -4.492184         1.621088         1.471966
 H        -3.241182        -2.271326         0.775174
 H        -2.680843        -1.552840         2.377920
 H        -4.248110        -2.543074         2.211545
