19
Iteration:   456charge 0 multiplicity 1
 C         1.232777        -0.749071        -0.244414
 C        -0.138537        -0.109132        -0.150465
 C        -1.263858         0.280715         0.133401
 C        -2.613719         0.792088         0.231846
 O        -2.742401         2.223633         0.577066
 C        -3.335624        -0.087115         1.436937
 C        -4.670207        -0.708338         1.124653
 C        -5.404977        -1.334043         2.347115
 O        -5.046037        -0.663463        -0.022822
 H         1.992099        -0.173738         0.314674
 H         1.294856        -1.771681         0.107659
 H         1.714573        -0.608874        -1.190053
 H        -3.166063         0.871249        -0.732657
 H        -2.255581         2.314541         1.473102
 H        -2.493498        -0.780946         1.870771
 H        -3.500063         0.547212         2.303412
 H        -5.627063        -0.459422         2.983616
 H        -6.436022        -1.633190         2.086462
 H        -4.860327        -2.100796         2.862350
