19
Iteration:  4393charge 0 multiplicity 1
 C         0.422824        -1.505368        -0.025436
 C        -0.548476        -0.554763         0.456705
 C        -1.435434         0.263275         0.153307
 C        -2.694834         1.073748         0.024964
 O        -2.461536         2.449797        -0.025072
 C        -3.696981         0.822861         1.217266
 C        -4.452734        -0.505056         1.214027
 C        -3.616963        -1.649470         1.827161
 O        -5.631773        -0.716211         0.888410
 H         1.336152        -1.005785        -0.347807
 H         0.685290        -2.267430         0.751604
 H        -0.054705        -1.966285        -0.932453
 H        -3.187199         0.693296        -0.968159
 H        -1.493764         2.619741        -0.285627
 H        -3.057220         0.886216         2.051089
 H        -4.399038         1.664264         1.146205
 H        -2.830459        -1.783967         1.093775
 H        -3.319844        -1.168447         2.783499
 H        -4.221145        -2.553129         2.012865
