19
Iteration:  3265charge 0 multiplicity 1
 C         0.481001        -1.255823        -0.797475
 C        -0.604763        -0.528467        -0.310680
 C        -1.468344         0.230764         0.164630
 C        -2.724562         0.976191         0.357979
 O        -2.577300         2.397058         0.230336
 C        -3.405648         0.618507         1.668577
 C        -4.329111        -0.593328         1.467969
 C        -5.273540        -0.990015         2.538904
 O        -4.183075        -1.175052         0.354246
 H         0.600936        -2.217568        -0.225340
 H         0.373506        -1.630004        -1.867804
 H         1.532870        -0.836986        -0.771476
 H        -3.439952         0.475095        -0.458905
 H        -2.073512         2.638343        -0.539072
 H        -2.735524         0.348423         2.496286
 H        -4.066251         1.562237         1.889050
 H        -4.622336        -1.506278         3.235025
 H        -5.592294        -0.144480         3.145938
 H        -6.158374        -1.558036         2.181778
