19
Iteration:  3995
 C         0.638532        -1.077533         0.335088
 C        -0.671825        -0.487250         0.224378
 C        -1.733438        -0.058095        -0.164511
 C        -2.811526         0.887313        -0.119544
 O        -2.214112         2.253326        -0.004856
 C        -3.631144         0.756672         1.174434
 C        -4.410010        -0.515441         1.301032
 C        -3.707812        -1.819626         1.605745
 O        -5.605627        -0.406178         1.219137
 H         1.005451        -1.028539        -0.699678
 H         1.207037        -0.421679         1.001477
 H         0.485738        -2.122179         0.662451
 H        -3.502186         0.869537        -1.078172
 H        -2.800797         2.955034        -0.484044
 H        -2.830828         0.841609         1.910052
 H        -4.246733         1.674402         1.266774
 H        -2.986910        -2.324644         0.823177
 H        -3.075807        -1.553182         2.528396
 H        -4.509439        -2.486001         1.897477
