19
Iteration:  4164
 C         0.927550        -1.125629         0.330763
 C        -0.306248        -0.435461        -0.064715
 C        -1.392895         0.145537        -0.102991
 C        -2.748899         0.742692         0.085481
 O        -2.719618         2.145872        -0.205259
 C        -3.465534         0.668038         1.421630
 C        -4.523940        -0.446969         1.388075
 C        -4.050948        -1.875456         1.600266
 O        -5.755346        -0.167534         1.113404
 H         1.761911        -0.841359        -0.318160
 H         1.202543        -0.837169         1.357025
 H         0.853060        -2.202608         0.178583
 H        -3.413666         0.341037        -0.601104
 H        -1.755546         2.365706        -0.488142
 H        -2.950042         0.445045         2.353408
 H        -3.937188         1.662451         1.551407
 H        -3.137115        -1.962905         1.048366
 H        -3.796286        -1.893990         2.667163
 H        -4.812913        -2.595947         1.341429
