19
Iteration:  4491
 C         0.165469        -1.412393         0.300796
 C        -0.984126        -0.538756         0.164985
 C        -1.817458         0.190414        -0.298121
 C        -2.785857         1.254059        -0.029834
 O        -2.285699         2.624979         0.147480
 C        -3.441074         0.694837         1.258959
 C        -4.232958        -0.627616         1.245460
 C        -3.585439        -1.683245         2.150765
 O        -5.278785        -0.840736         0.580912
 H         1.182044        -0.956698         0.356019
 H        -0.033923        -2.075125         1.204358
 H         0.079359        -2.101795        -0.637001
 H        -3.614400         1.211483        -0.659056
 H        -1.502434         2.714699        -0.545430
 H        -2.591601         0.573542         1.917977
 H        -4.204543         1.401332         1.702023
 H        -2.699586        -1.861395         1.519696
 H        -3.381364        -1.238706         3.162336
 H        -4.318860        -2.543557         2.319655
