19
Iteration:  3380charge 0 multiplicity 1
 C         0.482072        -1.374450        -0.492088
 C        -0.646415        -0.406781        -0.310430
 C        -1.666696         0.200432        -0.148388
 C        -2.846117         1.094599         0.077174
 O        -2.334618         2.366743         0.564439
 C        -3.720573         0.675785         1.332502
 C        -4.278008        -0.665328         1.403931
 C        -4.763022        -1.003188         2.715261
 O        -4.418299        -1.253875         0.294906
 H         0.307766        -2.308949        -0.003643
 H         0.718293        -1.429069        -1.536180
 H         1.325147        -0.835086        -0.051149
 H        -3.612125         1.237380        -0.780220
 H        -1.465804         2.440609         0.208015
 H        -3.112231         0.860916         2.260563
 H        -4.547047         1.326621         1.461628
 H        -3.882341        -1.386787         3.262745
 H        -5.035707        -0.120854         3.302672
 H        -5.639306        -1.675236         2.699994
