19
Iteration:  3130charge 0 multiplicity 1
 C         0.756244        -1.012319        -0.599020
 C        -0.603452        -0.497451        -0.529795
 C        -1.547988         0.253489        -0.232356
 C        -2.664551         1.066126         0.123417
 O        -2.112875         2.402820         0.434737
 C        -3.562382         0.559326         1.385270
 C        -4.633075        -0.568935         1.426806
 C        -5.247091        -1.047929         2.838094
 O        -4.664847        -1.464121         0.503304
 H         0.687336        -1.662283         0.278647
 H         1.044553        -1.618950        -1.470614
 H         1.534593        -0.207607        -0.454367
 H        -3.377696         1.068326        -0.828114
 H        -1.090372         2.339318         0.562789
 H        -2.720398         0.312335         2.129648
 H        -4.049517         1.392307         1.939512
 H        -4.524783        -0.721572         3.608860
 H        -6.253028        -0.693453         2.985227
 H        -5.043220        -2.089651         2.796319
