19
Iteration:  4199
 C         0.900791        -0.876061         0.342945
 C        -0.471248        -0.402388         0.021909
 C        -1.667234        -0.159482        -0.136844
 C        -2.867476         0.753285        -0.024662
 O        -2.444940         2.126099        -0.175074
 C        -3.438846         0.622657         1.358935
 C        -4.499278        -0.435261         1.443540
 C        -4.037423        -1.892745         1.612858
 O        -5.684710        -0.125546         1.093348
 H         1.567057        -0.325059        -0.282309
 H         1.236881        -0.755590         1.398145
 H         1.026311        -2.000721         0.166589
 H        -3.558565         0.559210        -0.780500
 H        -1.532018         2.240375         0.304036
 H        -2.566636         0.429290         2.084456
 H        -3.870507         1.652356         1.598769
 H        -3.122911        -2.014319         1.055599
 H        -3.808247        -2.226632         2.599197
 H        -4.643930        -2.683584         1.259818
