19
Iteration:    12charge 0 multiplicity 1
 C         1.505844         0.213499         0.035704
 C         0.036613         0.057987         0.093936
 C        -1.146529        -0.202131         0.038637
 C        -2.649262        -0.283512         0.091233
 O        -3.288064         0.784854        -0.641234
 C        -3.114691        -0.170504         1.497037
 C        -4.605463        -0.167289         1.483754
 C        -5.458531        -1.220955         0.877541
 O        -5.128031         0.700154         2.206626
 H         2.017382         0.224240         0.995838
 H         1.804877        -0.691089        -0.501362
 H         1.834610         1.040751        -0.594036
 H        -3.041918        -1.240660        -0.249032
 H        -2.518916         1.231716        -0.983949
 H        -2.750484        -1.030771         2.098567
 H        -2.882284         0.752317         2.022122
 H        -4.948896        -2.120620         1.234434
 H        -6.455198        -1.239365         1.307095
 H        -5.514782        -1.221043        -0.229766
