19
Iteration:   692charge 0 multiplicity 1
 C         1.342536        -0.403204        -0.555730
 C        -0.068324        -0.088409        -0.150853
 C        -1.179584         0.295554         0.176363
 C        -2.607369         0.634243         0.482124
 O        -2.713345         2.001588         0.916080
 C        -3.313956        -0.331989         1.530416
 C        -4.698700        -0.774329         1.105810
 C        -5.982917        -0.310925         1.980386
 O        -4.765601        -1.390258         0.053358
 H         1.812064         0.612252        -0.471992
 H         1.891970        -1.147536         0.034152
 H         1.400522        -0.534583        -1.644502
 H        -3.117721         0.694050        -0.492210
 H        -1.767138         2.265363         1.234187
 H        -2.830951        -1.307144         1.511125
 H        -3.049141         0.038068         2.583622
 H        -5.809122         0.741314         2.091506
 H        -6.939133        -0.404784         1.457287
 H        -6.097443        -0.842874         2.886256
