19
Iteration:  1601charge 0 multiplicity 1
 C         0.664863        -1.223379        -0.018503
 C        -0.456061        -0.266472         0.024537
 C        -1.459515         0.396050         0.118267
 C        -2.728845         1.201075         0.220476
 O        -2.626598         2.767589         0.764407
 C        -3.667585         0.595619         1.204059
 C        -4.421120        -0.863631         1.011556
 C        -4.726968        -1.639324         2.252978
 O        -4.686301        -1.277757        -0.083501
 H         1.347168        -1.079877        -0.862311
 H         1.246782        -1.211993         0.913894
 H         0.380096        -2.272946        -0.010636
 H        -3.202959         1.252317        -0.775027
 H        -1.614873         2.814568         0.510349
 H        -3.190211         0.594894         2.181068
 H        -4.445285         1.364028         1.275395
 H        -5.825767        -1.700689         2.307013
 H        -4.272623        -2.679844         2.192519
 H        -4.145239        -1.127962         3.119424
