19
Iteration:   202charge 0 multiplicity 1
 C         1.614555        -0.172656         0.046530
 C         0.111112        -0.075866         0.073917
 C        -1.104619         0.057652        -0.039936
 C        -2.612307         0.138977         0.020157
 O        -3.044915         1.578736        -0.295850
 C        -3.164614        -0.372602         1.378286
 C        -4.737378        -0.392974         1.422793
 C        -5.466256        -1.702896         1.756193
 O        -5.417081         0.589667         1.194449
 H         1.999612         0.273746         0.990223
 H         2.013905        -1.198655        -0.007963
 H         2.021866         0.569787        -0.651216
 H        -3.141084        -0.402492        -0.713148
 H        -3.173889         2.060867         0.607356
 H        -2.776077        -1.432001         1.405274
 H        -2.966171         0.147680         2.300213
 H        -5.174920        -2.200266         2.665226
 H        -6.549304        -1.723388         1.537298
 H        -4.845019        -2.330791         1.115045
