19
Iteration:  3259charge 0 multiplicity 1
 C         0.537516        -1.283894        -0.816500
 C        -0.669783        -0.545161        -0.347223
 C        -1.422980         0.258105         0.115613
 C        -2.690395         1.004981         0.340024
 O        -2.548657         2.451203         0.214824
 C        -3.417234         0.588132         1.691776
 C        -4.337364        -0.677692         1.475646
 C        -5.304532        -1.033332         2.559500
 O        -4.232286        -1.156534         0.409982
 H         0.675058        -2.116262        -0.120726
 H         0.564693        -1.679361        -1.804644
 H         1.385225        -0.636033        -0.579232
 H        -3.365540         0.644383        -0.347781
 H        -2.057180         2.566591        -0.599791
 H        -2.729594         0.627573         2.579436
 H        -3.941866         1.476882         1.851178
 H        -4.725925        -1.597082         3.343054
 H        -5.765425        -0.093407         2.968312
 H        -6.134534        -1.467975         2.004062
