19
Iteration:  3132
 C         0.755055        -0.999276        -0.591098
 C        -0.617353        -0.517308        -0.521035
 C        -1.552439         0.257170        -0.238550
 C        -2.676945         1.058233         0.115156
 O        -2.102246         2.420057         0.452710
 C        -3.546974         0.559798         1.369341
 C        -4.641690        -0.586333         1.443577
 C        -5.243101        -1.025373         2.832376
 O        -4.666148        -1.477722         0.498843
 H         0.752042        -1.720391         0.266634
 H         1.013486        -1.629104        -1.490482
 H         1.546393        -0.182279        -0.465724
 H        -3.340382         1.087617        -0.810680
 H        -1.152186         2.343188         0.539494
 H        -2.733159         0.341265         2.050489
 H        -4.025213         1.412883         1.972116
 H        -4.472004        -0.748656         3.547403
 H        -6.247096        -0.699419         2.967663
 H        -5.030437        -2.079752         2.788098
