19
Iteration:  1978charge 0 multiplicity 1
 C         0.343970        -1.431149         0.292383
 C        -0.619684        -0.279217         0.212349
 C        -1.610897         0.401657         0.192438
 C        -2.800681         1.131009         0.303003
 O        -2.507641         2.588103         0.347088
 C        -3.684098         0.661483         1.311942
 C        -4.284698        -0.738985         0.993315
 C        -3.742803        -1.885951         1.900367
 O        -5.180029        -0.753499         0.147366
 H         1.439279        -1.280927         0.202367
 H         0.114384        -2.034789         1.165767
 H         0.122881        -2.099654        -0.517830
 H        -3.253862         0.913374        -0.630883
 H        -2.179058         2.982436        -0.465340
 H        -3.370008         0.816409         2.323093
 H        -4.448974         1.387736         1.161298
 H        -4.527816        -2.596791         1.980727
 H        -2.970256        -2.311528         1.215215
 H        -3.423419        -1.231996         2.700688
