19
Iteration:  1669
 C         0.463845        -1.285563         0.141451
 C        -0.673514        -0.283749         0.145751
 C        -1.750964         0.346054        -0.100076
 C        -2.883883         1.197479         0.274903
 O        -2.576413         2.624131         0.511621
 C        -3.508295         0.557540         1.475741
 C        -4.247124        -0.771895         1.073141
 C        -4.559730        -1.711001         2.072694
 O        -4.426645        -0.994148        -0.137277
 H         1.072880        -0.954239        -0.628749
 H         0.957797        -1.208599         1.116971
 H         0.098126        -2.332614         0.021945
 H        -3.699240         1.293390        -0.538642
 H        -1.973266         2.777036         1.195154
 H        -2.627684         0.465620         2.113589
 H        -4.138527         1.245638         2.025728
 H        -5.200586        -2.596934         1.745582
 H        -3.694572        -2.131685         2.641336
 H        -5.093405        -1.029566         2.804817
