19
Iteration:   138charge 0 multiplicity 1
 C         1.511872         0.105633         0.084765
 C         0.086624         0.052150         0.101858
 C        -1.115229        -0.134353        -0.104397
 C        -2.574391        -0.007131         0.017765
 O        -3.053367         1.328301        -0.398800
 C        -3.202291        -0.530105         1.335443
 C        -4.738601        -0.308408         1.450109
 C        -5.517701        -1.622137         1.581786
 O        -5.236642         0.780935         1.508659
 H         1.943340         0.332751         1.117157
 H         1.911332        -0.912963        -0.222322
 H         1.908010         0.775444        -0.722279
 H        -3.015859        -0.742938        -0.748213
 H        -2.698291         1.995053         0.276701
 H        -3.066240        -1.688759         1.456645
 H        -2.702308        -0.131883         2.211008
 H        -5.687928        -2.007133         2.672739
 H        -6.568581        -1.388856         1.184132
 H        -5.078011        -2.432831         0.940671
