19
Iteration:  4622charge 0 multiplicity 1
 C         0.265130        -1.391872        -0.618061
 C        -0.619185        -0.581252         0.189904
 C        -1.489140         0.287239         0.266164
 C        -2.772401         1.031459         0.133806
 O        -2.391846         2.525688         0.072887
 C        -3.731777         0.857160         1.374235
 C        -4.298903        -0.558956         1.349741
 C        -4.427818        -1.361576         2.616172
 O        -4.655104        -1.112613         0.346511
 H         1.319967        -1.259241        -0.675191
 H         0.069608        -2.461526        -0.409239
 H        -0.107778        -1.238513        -1.673982
 H        -3.417191         0.519123        -0.643449
 H        -1.434539         2.438671         0.264969
 H        -3.249792         1.093688         2.347285
 H        -4.476723         1.740169         1.227131
 H        -3.469554        -1.523435         3.069551
 H        -5.058516        -0.770092         3.311527
 H        -4.796928        -2.348216         2.242872
