19
Iteration:  4191
 C         0.908066        -0.912369         0.323616
 C        -0.414447        -0.401727         0.021368
 C        -1.596228        -0.128989        -0.160945
 C        -2.856023         0.680391        -0.041442
 O        -2.545427         2.097707        -0.110136
 C        -3.440540         0.680394         1.357610
 C        -4.548353        -0.430717         1.433659
 C        -4.014214        -1.887657         1.593174
 O        -5.626603        -0.109659         1.103391
 H         1.778019        -0.468232        -0.245855
 H         0.987542        -0.701457         1.401193
 H         0.851953        -2.023390         0.182688
 H        -3.649308         0.583663        -0.914534
 H        -1.583744         2.109647         0.248230
 H        -2.761189         0.485616         2.232036
 H        -3.966399         1.630905         1.483490
 H        -3.037175        -1.916110         1.058864
 H        -3.809022        -1.968901         2.657946
 H        -4.828240        -2.530666         1.201567
