19
Iteration:  4608
 C         0.284381        -1.487423        -0.589946
 C        -0.682426        -0.611911         0.294935
 C        -1.578877         0.218216         0.154846
 C        -2.731834         1.142221         0.137820
 O        -2.480141         2.515105         0.045493
 C        -3.656206         0.852230         1.409734
 C        -4.281657        -0.527929         1.380550
 C        -4.321553        -1.380146         2.587016
 O        -4.700439        -1.060104         0.291714
 H         1.264892        -1.050988        -0.337882
 H         0.348216        -2.520899        -0.357835
 H         0.056260        -1.313382        -1.586553
 H        -3.192435         1.089835        -0.940510
 H        -1.597059         2.795634         0.446222
 H        -3.043043         1.049251         2.313356
 H        -4.598785         1.431863         1.361463
 H        -3.308183        -1.567307         2.945664
 H        -4.939766        -1.093089         3.439167
 H        -4.752563        -2.378931         2.332380
