19
Iteration:   758charge 0 multiplicity 1
 C         1.398091        -0.369010        -0.351204
 C        -0.014135         0.042369        -0.112030
 C        -1.168741         0.341367         0.195784
 C        -2.590957         0.539504         0.374709
 O        -2.907740         1.932748         0.861725
 C        -3.203687        -0.616031         1.273252
 C        -4.740341        -0.733204         1.111777
 C        -5.734625        -0.111469         2.109364
 O        -4.961754        -1.335526         0.038985
 H         1.914130         0.632855        -0.510799
 H         1.902689        -0.973056         0.414010
 H         1.535139        -0.819437        -1.337145
 H        -3.099060         0.335655        -0.587817
 H        -2.460189         1.911768         1.682787
 H        -2.742353        -1.588106         1.020824
 H        -2.928332        -0.374789         2.357490
 H        -5.241617         0.838374         2.369255
 H        -6.560983         0.181586         1.455934
 H        -6.035167        -0.671693         3.021000
