19
Iteration:  4001charge 0 multiplicity 1
 C         0.662938        -1.084601         0.330970
 C        -0.655561        -0.512856         0.205894
 C        -1.752049        -0.084646        -0.099307
 C        -2.793932         0.900888        -0.148186
 O        -2.266252         2.224806        -0.007023
 C        -3.639234         0.823803         1.193081
 C        -4.405485        -0.495327         1.311881
 C        -3.698932        -1.796925         1.574893
 O        -5.593446        -0.406019         1.203295
 H         1.045399        -1.043705        -0.694685
 H         1.325780        -0.472882         0.984125
 H         0.650152        -2.179545         0.601575
 H        -3.486066         0.789085        -0.921719
 H        -2.886706         2.813743        -0.392693
 H        -2.806760         0.941058         1.918764
 H        -4.354232         1.643411         1.350895
 H        -3.002453        -2.193056         0.846405
 H        -3.114898        -1.695875         2.470502
 H        -4.526252        -2.513867         1.800395
