19
Iteration:  2854charge 0 multiplicity 1
 C         0.615144        -1.163787        -0.369596
 C        -0.594593        -0.421285        -0.335683
 C        -1.693470         0.053968        -0.082125
 C        -2.765792         1.084901         0.153320
 O        -2.134657         2.348247         0.176886
 C        -3.660544         0.784559         1.521172
 C        -4.441621        -0.513546         1.428877
 C        -4.645672        -1.488432         2.623991
 O        -4.910747        -0.984538         0.385845
 H         0.887326        -1.657430         0.638019
 H         0.696123        -2.008572        -1.132337
 H         1.419286        -0.394740        -0.606897
 H        -3.550695         1.053727        -0.679544
 H        -1.184891         2.090830         0.511421
 H        -3.096833         0.684841         2.481371
 H        -4.420660         1.615107         1.478514
 H        -5.263272        -0.946429         3.285566
 H        -5.120155        -2.353531         2.160831
 H        -3.672201        -1.755106         3.082181
