19
Iteration:   733charge 0 multiplicity 1
 C         1.275368        -0.376373        -0.408399
 C        -0.046560         0.158548        -0.154269
 C        -1.204269         0.233953         0.187016
 C        -2.588448         0.535635         0.411747
 O        -2.675682         1.899502         0.923319
 C        -3.235615        -0.421693         1.464839
 C        -4.665777        -0.699953         1.044818
 C        -5.703554        -0.160952         1.960173
 O        -4.987813        -1.395305         0.061623
 H         1.951600         0.450907        -0.447936
 H         1.608798        -1.082823         0.356849
 H         1.334759        -0.851527        -1.405287
 H        -3.143693         0.239042        -0.477372
 H        -3.594807         1.941921         1.185285
 H        -2.639329        -1.295463         1.452749
 H        -3.213547         0.030002         2.488404
 H        -5.497198         0.691264         2.637474
 H        -6.633987        -0.088878         1.334413
 H        -5.794309        -1.177602         2.564580
