19
Iteration:  2812
 C         0.503578        -1.314234        -0.428878
 C        -0.677715        -0.637628         0.033556
 C        -1.607213         0.179079         0.007715
 C        -2.660868         1.025580         0.204095
 O        -2.454699         2.465564         0.277130
 C        -3.514829         0.629160         1.396132
 C        -4.336353        -0.664498         1.224301
 C        -4.352914        -1.270386         2.556426
 O        -5.014823        -0.863298         0.283380
 H         1.286160        -1.808923         0.192619
 H         0.175590        -2.040427        -1.193952
 H         0.962564        -0.389297        -0.831704
 H        -3.266849         0.966432        -0.697010
 H        -1.608804         2.763949         0.707436
 H        -2.927296         0.777436         2.268823
 H        -4.327486         1.433176         1.444119
 H        -5.145028        -0.737304         3.094988
 H        -4.766458        -2.315630         2.532215
 H        -3.393688        -1.468474         3.100649
