19
Iteration:  3642
 C         0.435304        -1.211745        -0.103413
 C        -0.952714        -0.812178        -0.075285
 C        -1.784039         0.120777        -0.072832
 C        -2.879492         1.100389         0.067351
 O        -2.167228         2.421913         0.012521
 C        -3.675432         0.884667         1.442136
 C        -4.325657        -0.499932         1.355144
 C        -4.049799        -1.492919         2.477216
 O        -4.939961        -0.933181         0.424213
 H         0.628528        -2.085562        -0.739056
 H         0.996743        -0.379463        -0.593845
 H         0.790980        -1.223682         1.001594
 H        -3.598471         1.066183        -0.712069
 H        -1.475873         2.455965         0.785951
 H        -3.026856         1.099971         2.348886
 H        -4.456098         1.703273         1.405824
 H        -2.958672        -1.737533         2.280985
 H        -4.082560        -1.249815         3.523891
 H        -4.603393        -2.358136         2.125249
