19
Iteration:  2745
 C         0.273462        -1.591391        -0.196626
 C        -0.684518        -0.415957        -0.302747
 C        -1.437420         0.425317         0.103786
 C        -2.733624         1.189543         0.313764
 O        -2.418094         2.594851         0.041204
 C        -3.681251         0.879338         1.533204
 C        -4.179311        -0.682983         1.331992
 C        -4.352887        -1.705647         2.423465
 O        -4.845871        -0.919366         0.286913
 H         0.687168        -1.944428         0.796219
 H        -0.194542        -2.473953        -0.672287
 H         1.126876        -1.424148        -0.864091
 H        -3.309475         0.854581        -0.525892
 H        -1.718213         2.731068         0.674607
 H        -3.095358         1.068558         2.424238
 H        -4.552485         1.563195         1.685011
 H        -4.336242        -1.316196         3.419710
 H        -5.371496        -2.203661         2.485297
 H        -3.732089        -2.637379         2.340239
