19
Iteration:  1617
 C         0.574071        -1.247251         0.082079
 C        -0.505409        -0.207873        -0.104842
 C        -1.452364         0.493524         0.091552
 C        -2.680878         1.236685         0.252196
 O        -2.579676         2.644685         0.653123
 C        -3.706758         0.555688         1.327500
 C        -4.293808        -0.767280         0.979087
 C        -4.677258        -1.656369         2.210801
 O        -4.687459        -1.287895        -0.046103
 H         1.343298        -1.176785        -0.741219
 H         0.984113        -1.071949         1.088343
 H        -0.037588        -2.185811         0.051194
 H        -3.313540         1.306107        -0.740041
 H        -1.692713         2.908310         0.943411
 H        -3.186345         0.508191         2.307648
 H        -4.567546         1.228054         1.539815
 H        -5.739301        -1.974326         2.055337
 H        -4.223627        -2.605069         1.998435
 H        -4.645572        -1.341259         3.223642
