19
Iteration:  2174charge 0 multiplicity 1
 C         0.747107        -1.095099         0.229725
 C        -0.463830        -0.368831         0.064102
 C        -1.570338         0.167219         0.054658
 C        -2.705466         1.109683         0.119848
 O        -2.138850         2.385626         0.373793
 C        -3.909520         0.663553         1.103831
 C        -4.610074        -0.643856         1.138790
 C        -3.811805        -1.735797         1.781090
 O        -5.745506        -0.807980         0.631038
 H         1.551412        -0.558701         0.811543
 H         0.708220        -2.055489         0.791050
 H         1.005730        -1.469988        -0.776936
 H        -2.939632         1.157095        -0.973614
 H        -1.506891         2.128994         0.995547
 H        -3.555349         1.032409         2.118446
 H        -4.707297         1.418070         0.892412
 H        -3.481171        -1.318260         2.688214
 H        -4.348361        -2.622805         1.886592
 H        -2.994735        -1.924580         1.105613
