19
Iteration:  4285charge 0 multiplicity 1
 C         0.921793        -0.976759         0.093101
 C        -0.415602        -0.433533         0.058294
 C        -1.606699        -0.145616         0.009179
 C        -2.764058         0.782615         0.006958
 O        -2.332418         2.083063         0.014103
 C        -3.737820         0.746044         1.262903
 C        -4.578658        -0.383325         1.263126
 C        -3.878642        -1.713596         1.703580
 O        -5.801924        -0.327508         1.110478
 H         1.686556        -0.406782        -0.312717
 H         1.157333        -1.162297         1.151581
 H         0.921725        -1.958227        -0.443772
 H        -3.439315         0.599729        -0.815852
 H        -1.449759         2.016957         0.349327
 H        -3.085730         0.855747         2.080155
 H        -4.356284         1.664053         1.197226
 H        -2.908281        -1.833861         1.205894
 H        -3.464806        -1.600225         2.776431
 H        -4.510091        -2.578423         1.580650
