19
Iteration:  3751charge 0 multiplicity 1
 C         0.453783        -1.474823         0.002107
 C        -0.741807        -0.620868        -0.072882
 C        -1.592615         0.231241         0.126276
 C        -2.753725         1.111212        -0.066533
 O        -2.359512         2.483046         0.115747
 C        -3.663454         0.851396         1.095442
 C        -4.273349        -0.585337         1.328148
 C        -3.805180        -1.586568         2.286171
 O        -5.384856        -0.792076         0.743762
 H         0.721270        -2.280472        -0.666237
 H         1.304124        -0.743801         0.038670
 H         0.379549        -1.957916         1.058709
 H        -3.293468         0.986882        -1.082477
 H        -2.419022         2.991607        -0.722565
 H        -2.982754         1.121391         1.972827
 H        -4.407914         1.666188         1.037184
 H        -2.715844        -1.963519         2.236483
 H        -4.071185        -1.274916         3.348332
 H        -4.380250        -2.524422         2.161828
