19
Iteration:  3437
 C         0.360652        -1.133362        -0.151172
 C        -0.981964        -0.631385        -0.375431
 C        -1.893300         0.149080        -0.178950
 C        -2.853500         1.262378         0.135813
 O        -1.971626         2.417726         0.319355
 C        -3.575348         0.847463         1.460206
 C        -4.281863        -0.633794         1.315192
 C        -4.629157        -1.326790         2.693533
 O        -4.541807        -1.304401         0.278036
 H         0.423141        -2.174259         0.088676
 H         0.958127        -1.150837        -1.050664
 H         0.901557        -0.570808         0.609309
 H        -3.618857         1.474414        -0.711647
 H        -1.654309         2.777739        -0.562770
 H        -2.746504         0.612457         2.168703
 H        -4.178015         1.608802         1.809236
 H        -3.612027        -1.449602         3.129007
 H        -5.377515        -0.835338         3.360094
 H        -4.886622        -2.339452         2.314795
