19
Iteration:  1988charge 0 multiplicity 1
 C         0.287568        -1.479077         0.287582
 C        -0.594711        -0.311960         0.241227
 C        -1.506758         0.457510         0.288093
 C        -2.770313         1.172227         0.186443
 O        -2.556402         2.626831         0.309710
 C        -3.676712         0.680352         1.357236
 C        -4.290246        -0.795360         0.967478
 C        -3.773944        -1.887460         1.837211
 O        -5.217420        -0.745719         0.187234
 H         1.311500        -1.062666         0.305316
 H         0.225182        -2.098221         1.196363
 H         0.117762        -2.101717        -0.601209
 H        -3.326786         0.906144        -0.691356
 H        -2.225905         2.813081        -0.535354
 H        -3.069812         0.689973         2.275860
 H        -4.513208         1.373013         1.445710
 H        -4.325881        -2.774075         1.970638
 H        -2.811560        -2.062096         1.418027
 H        -3.389725        -1.607916         2.794521
