19
Iteration:  1565
 C         0.661586        -1.017020        -0.134446
 C        -0.507527        -0.332290         0.222105
 C        -1.493992         0.407791         0.262750
 C        -2.772350         0.990758         0.240770
 O        -2.502061         2.420375         0.753308
 C        -3.778823         0.599685         1.212628
 C        -4.337333        -0.767424         0.995233
 C        -4.708447        -1.487190         2.195887
 O        -4.640763        -1.208240        -0.116224
 H         1.025556        -0.496876        -1.104153
 H         1.473657        -0.772340         0.559894
 H         0.427695        -2.028720        -0.427578
 H        -3.231683         1.017983        -0.701774
 H        -2.053154         2.926928        -0.040668
 H        -3.300957         0.726519         2.197095
 H        -4.527945         1.421048         1.040028
 H        -5.605592        -1.010126         2.689393
 H        -4.838852        -2.577629         2.130580
 H        -4.103322        -1.162439         3.041055
