19
Iteration:  4889charge 0 multiplicity 1
 C         0.665062        -1.201728        -1.161029
 C        -0.243720        -0.284599        -0.467395
 C        -1.209674         0.253381         0.144524
 C        -2.576948         0.837688         0.262653
 O        -2.470910         2.355638         0.299456
 C        -3.560137         0.611290         1.630536
 C        -4.481314        -0.617567         1.544348
 C        -5.656239        -0.754240         2.590558
 O        -4.442112        -1.466911         0.730965
 H         1.642283        -1.444811        -0.782494
 H         0.192645        -2.189952        -1.205320
 H         0.766895        -0.906404        -2.178258
 H        -3.303983         0.653315        -0.624945
 H        -1.483411         2.482296         0.025659
 H        -2.827409         0.545186         2.521836
 H        -4.194581         1.444079         1.934184
 H        -5.176972        -0.833855         3.630232
 H        -6.525915        -0.084732         2.619706
 H        -5.969437        -1.848441         2.570644
