19
Iteration:   181
 C         1.470153        -0.040012         0.071828
 C         0.070873        -0.134342         0.044141
 C        -1.138509         0.027371         0.090611
 C        -2.579756         0.184109        -0.005191
 O        -2.956375         1.497455        -0.268364
 C        -3.213471        -0.431563         1.293663
 C        -4.675332        -0.391056         1.378843
 C        -5.476406        -1.744518         1.688128
 O        -5.301189         0.669873         1.332105
 H         1.973396         0.320516         1.028329
 H         1.832490        -1.093751        -0.119625
 H         1.855624         0.637430        -0.725404
 H        -2.773623        -0.435919        -0.891737
 H        -3.980475         1.528312        -0.570304
 H        -2.811859        -1.505876         1.465492
 H        -2.906676         0.278366         2.048844
 H        -5.318527        -1.802297         2.816191
 H        -6.488446        -1.362239         1.423287
 H        -5.038062        -2.668046         1.294816
