19
Iteration:   946charge 0 multiplicity 1
 C         1.435393         0.296668         0.423721
 C         0.027838         0.095238         0.044819
 C        -1.175800        -0.042562        -0.163452
 C        -2.604316         0.163623        -0.004050
 O        -2.801366         1.521748         0.506117
 C        -3.379323        -0.981198         0.737371
 C        -4.734381        -0.612571         1.079075
 C        -5.052016        -0.186181         2.559296
 O        -5.558618        -0.649738         0.161486
 H         1.983947         1.212847         0.156186
 H         1.373362         0.138596         1.502406
 H         2.015411        -0.571149         0.134818
 H        -3.218405         0.224577        -0.912554
 H        -3.200338         1.515732         1.383009
 H        -3.409587        -1.876600         0.036139
 H        -2.980886        -1.197670         1.740903
 H        -4.886500         0.961859         2.697865
 H        -6.129507        -0.322693         2.822164
 H        -4.290989        -0.678304         3.129558
