19
Iteration:  1773
 C         0.436309        -1.301683        -0.142648
 C        -0.543231        -0.297039         0.271316
 C        -1.564282         0.425921         0.237418
 C        -2.786856         1.155870         0.275038
 O        -2.448820         2.575454         0.580258
 C        -3.851463         0.615410         1.207370
 C        -4.345365        -0.771458         1.000402
 C        -4.305740        -1.679094         2.268257
 O        -4.682305        -1.029101        -0.113675
 H         1.152919        -0.958184        -1.003389
 H         0.912304        -1.608691         0.795605
 H        -0.207501        -2.027806        -0.583149
 H        -3.048811         1.274349        -0.820598
 H        -1.887318         2.570491         1.402235
 H        -3.541647         0.872350         2.265203
 H        -4.792297         1.183513         1.004933
 H        -3.442860        -2.260176         2.248978
 H        -4.636543        -1.016146         3.049834
 H        -5.145614        -2.354614         2.274187
