19
Iteration:  1241
 C         1.428177        -0.343052        -0.253623
 C        -0.021761        -0.035701         0.190292
 C        -1.216786         0.234636         0.310819
 C        -2.611886         0.477302         0.170718
 O        -2.718904         1.980802         0.247598
 C        -3.426321         0.094176         1.429512
 C        -4.753727        -0.596489         1.171591
 C        -5.544154        -1.278172         2.406886
 O        -5.105478        -0.834730         0.024792
 H         1.908901         0.156086        -1.111049
 H         2.067298        -0.055603         0.624193
 H         1.489791        -1.464331        -0.296904
 H        -2.933104         0.093228        -0.835491
 H        -2.128888         2.384220        -0.359318
 H        -2.974548        -0.434606         2.305984
 H        -3.732478         1.123669         1.716845
 H        -6.653341        -1.343297         2.391552
 H        -5.274198        -2.333140         2.234685
 H        -5.104211        -0.920651         3.363263
