19
Iteration:  3379
 C         0.484751        -1.377020        -0.496307
 C        -0.641887        -0.408386        -0.324337
 C        -1.656080         0.196522        -0.137779
 C        -2.836674         1.092208         0.079609
 O        -2.341037         2.380557         0.563104
 C        -3.723825         0.683015         1.331346
 C        -4.289286        -0.677962         1.401399
 C        -4.766084        -0.998415         2.714284
 O        -4.418261        -1.258309         0.300137
 H         0.302343        -2.317698         0.022836
 H         0.692799        -1.414243        -1.553430
 H         1.324723        -0.845738        -0.045136
 H        -3.587044         1.230636        -0.786322
 H        -1.432376         2.455770         0.200934
 H        -3.107190         0.863393         2.253032
 H        -4.567684         1.355139         1.509571
 H        -3.906668        -1.420442         3.253264
 H        -5.056393        -0.144021         3.314583
 H        -5.619856        -1.669776         2.709397
