19
Iteration:  2269charge 0 multiplicity 1
 C         0.800058        -1.092467        -0.047272
 C        -0.520921        -0.411786         0.243318
 C        -1.502261         0.230195         0.453505
 C        -2.787789         0.934168         0.274182
 O        -2.359316         2.327954         0.011850
 C        -3.764394         0.702292         1.351166
 C        -4.473559        -0.575203         1.121510
 C        -3.944059        -1.743003         1.791565
 O        -5.588124        -0.655715         0.511125
 H         1.583614        -0.863613         0.596294
 H         0.579504        -2.140445         0.251608
 H         1.059497        -1.245285        -1.095623
 H        -3.354281         0.717967        -0.654331
 H        -1.541002         2.702859         0.566460
 H        -3.251736         0.700566         2.287375
 H        -4.572250         1.439200         1.370640
 H        -4.716693        -2.502868         1.445205
 H        -2.976418        -2.018389         1.197657
 H        -3.637969        -1.877073         2.929513
