19
Iteration:  1070
 C         1.562706         0.010219         0.263360
 C         0.075806         0.109366         0.314394
 C        -1.104180         0.362263         0.013760
 C        -2.555736         0.128288        -0.048323
 O        -3.161873         1.553249         0.258701
 C        -3.206115        -0.900713         0.913841
 C        -4.696347        -0.640448         1.112208
 C        -5.238441        -0.536976         2.581957
 O        -5.451766        -0.359661         0.209847
 H         1.935026         0.699030        -0.473568
 H         2.012989         0.229631         1.252566
 H         1.880326        -1.014436        -0.112929
 H        -2.585021        -0.161556        -1.097617
 H        -4.070412         1.532840        -0.237581
 H        -3.141930        -1.910755         0.554232
 H        -2.526055        -0.774313         1.804291
 H        -4.549461        -0.154357         3.255988
 H        -6.224505        -0.087764         2.489210
 H        -5.264792        -1.660312         2.762390
