19
Iteration:  3473
 C         0.392622        -1.348710        -0.066871
 C        -0.836060        -0.584847        -0.392058
 C        -1.832866         0.112098        -0.254043
 C        -2.876941         1.120606         0.110009
 O        -2.328402         2.441587         0.311758
 C        -3.524427         0.773987         1.488668
 C        -4.114359        -0.612605         1.327611
 C        -4.492351        -1.357580         2.650583
 O        -4.574771        -0.905406         0.245677
 H         0.108097        -2.443440         0.103718
 H         1.092243        -1.185728        -0.938125
 H         0.855104        -0.926099         0.849081
 H        -3.669402         1.111819        -0.656276
 H        -1.610626         2.509401        -0.410031
 H        -2.960644         0.870789         2.395650
 H        -4.485980         1.296607         1.741291
 H        -3.599077        -1.473655         3.356078
 H        -5.332475        -0.976830         3.343123
 H        -4.795104        -2.410349         2.424995
