19
Iteration:   122
 C         1.537882         0.127557         0.098725
 C         0.071818         0.089794         0.053376
 C        -1.129284        -0.158216        -0.112414
 C        -2.588242        -0.046322        -0.054529
 O        -2.946688         1.256897        -0.381291
 C        -3.137101        -0.515525         1.374494
 C        -4.717066        -0.325446         1.526448
 C        -5.634820        -1.536565         1.484106
 O        -5.246223         0.778083         1.579123
 H         1.833746         0.395244         1.082641
 H         2.008631        -0.797697        -0.178738
 H         1.893452         0.905813        -0.589199
 H        -3.057071        -0.685937        -0.759426
 H        -3.786111         1.259519         0.081598
 H        -2.743987        -1.469573         1.500007
 H        -2.696819         0.117461         2.191318
 H        -5.532828        -1.926936         2.449101
 H        -6.680007        -1.449907         1.317134
 H        -5.273601        -2.320276         0.832674
