19
Iteration:  1622charge 0 multiplicity 1
 C         0.508511        -1.233807         0.114668
 C        -0.491697        -0.207165        -0.134088
 C        -1.452043         0.523451         0.086877
 C        -2.681706         1.297462         0.252900
 O        -2.573442         2.589715         0.620652
 C        -3.711807         0.552203         1.338531
 C        -4.276111        -0.787026         1.002649
 C        -4.702875        -1.669973         2.190587
 O        -4.665950        -1.253164        -0.046616
 H         1.205979        -1.112138        -0.711049
 H         0.999113        -1.132261         1.093238
 H         0.066408        -2.223581         0.069907
 H        -3.284378         1.180477        -0.589466
 H        -1.674838         2.673319         0.981861
 H        -3.230390         0.395011         2.312107
 H        -4.557736         1.222103         1.591592
 H        -5.705527        -2.018755         1.999651
 H        -4.062877        -2.607650         2.104135
 H        -4.496535        -1.270333         3.234321
