19
Iteration:  2082
 C         0.434362        -1.365320         0.396481
 C        -0.564746        -0.392170         0.210332
 C        -1.627955         0.251922         0.098115
 C        -2.840391         1.119700         0.238229
 O        -2.442063         2.559171         0.190977
 C        -3.752984         0.776781         1.420991
 C        -4.426431        -0.558145         1.116574
 C        -3.626456        -1.882991         1.557316
 O        -5.350492        -0.783633         0.417380
 H         1.340924        -0.862766         0.657246
 H         0.256209        -2.087677         1.194059
 H         0.505774        -1.907198        -0.561897
 H        -3.482551         0.901667        -0.646793
 H        -1.448128         2.577606        -0.112093
 H        -3.169999         0.576936         2.335978
 H        -4.452330         1.583512         1.705011
 H        -2.808234        -1.762623         0.768503
 H        -3.299558        -1.802117         2.635872
 H        -4.206041        -2.819016         1.350244
