19
Iteration:   477
 C         1.204059        -0.670637        -0.311838
 C        -0.136612        -0.201410        -0.111563
 C        -1.194203         0.398448         0.058499
 C        -2.581608         0.754910         0.398655
 O        -2.710118         2.231323         0.695066
 C        -3.286469        -0.037250         1.489044
 C        -4.613550        -0.708401         1.105407
 C        -5.497628        -1.196540         2.224459
 O        -5.127694        -0.883809        -0.006273
 H         2.024310        -0.182228         0.228657
 H         1.170589        -1.702396         0.009110
 H         1.542397        -0.675754        -1.317684
 H        -3.125238         0.550030        -0.565375
 H        -1.978973         2.571329         0.245691
 H        -2.482367        -0.737148         1.861139
 H        -3.265887         0.573252         2.347638
 H        -5.904955        -0.408555         2.894443
 H        -6.451608        -1.430450         1.738184
 H        -5.131848        -2.005025         2.816502
