19
Iteration:  1156charge 0 multiplicity 1
 C         1.568952        -0.043966         0.188892
 C         0.059754         0.017721         0.030623
 C        -1.190913        -0.011453        -0.085106
 C        -2.612066         0.413690         0.013704
 O        -2.915082         1.798955         0.101640
 C        -3.229937        -0.344205         1.378515
 C        -4.751337        -0.545005         1.262198
 C        -5.547815        -1.051406         2.442721
 O        -5.308382        -0.564537         0.166765
 H         1.916647         0.555275        -0.607238
 H         2.003883         0.305606         1.140547
 H         2.054745        -1.041377         0.004384
 H        -3.214322         0.175683        -0.927448
 H        -2.220514         2.159742         0.751610
 H        -2.803491        -1.341186         1.521099
 H        -2.822846         0.291513         2.225463
 H        -5.870160        -0.359725         3.231563
 H        -6.399123        -1.692205         2.068882
 H        -4.924797        -1.852054         3.007597
