19
Iteration:  1509
 C         0.792529        -0.792835        -0.185452
 C        -0.531753        -0.360634         0.039732
 C        -1.542011         0.260735         0.321861
 C        -2.770902         1.075523         0.363890
 O        -2.354028         2.350937         0.421225
 C        -3.932109         0.627016         1.409959
 C        -4.473103        -0.676714         1.131435
 C        -4.948528        -1.629597         2.154022
 O        -4.440232        -1.143972        -0.019363
 H         1.365169        -0.421093        -1.088532
 H         1.350195        -0.606006         0.751700
 H         0.878282        -1.912035        -0.156533
 H        -3.243448         0.997500        -0.567337
 H        -1.444717         2.432836         0.542645
 H        -3.720943         0.890309         2.462837
 H        -4.683125         1.389668         1.037319
 H        -5.010520        -1.308385         3.241981
 H        -5.887249        -2.124636         1.911044
 H        -4.282573        -2.512827         2.116457
