19
Iteration:  4043
 C         0.808507        -1.236656         0.192623
 C        -0.530330        -0.604427         0.056740
 C        -1.448151         0.181388         0.242759
 C        -2.698855         0.907208         0.172487
 O        -2.388320         2.156703        -0.378909
 C        -3.716289         0.853875         1.501790
 C        -4.552250        -0.428526         1.306532
 C        -3.720414        -1.730306         1.488275
 O        -5.785638        -0.460151         1.120059
 H         1.353349        -1.159853        -0.763697
 H         1.267178        -0.646349         0.976804
 H         0.613896        -2.259717         0.423587
 H        -3.291712         0.394370        -0.759981
 H        -3.036930         2.813116        -0.138869
 H        -3.294107         0.952191         2.524247
 H        -4.397415         1.694510         1.367336
 H        -3.009531        -1.694411         0.755710
 H        -3.127335        -1.697446         2.368307
 H        -4.303125        -2.658268         1.380347
