19
Iteration:  2643
 C         0.114051        -1.488019         0.067656
 C        -0.845640        -0.495485        -0.300645
 C        -1.676340         0.336656        -0.089486
 C        -2.800354         1.259453         0.177570
 O        -2.233211         2.680763         0.273533
 C        -3.783506         0.900930         1.471708
 C        -4.227038        -0.656793         1.291762
 C        -4.063242        -1.688273         2.345470
 O        -4.757985        -1.117910         0.206789
 H         0.554291        -1.566590         1.110871
 H        -0.325630        -2.519266        -0.165615
 H         0.977117        -1.420280        -0.684060
 H        -3.541886         1.332497        -0.696596
 H        -1.278684         2.502874         0.629807
 H        -3.072403         1.039944         2.375361
 H        -4.488231         1.710418         1.512946
 H        -3.060353        -2.170532         2.366752
 H        -4.067153        -1.244405         3.345052
 H        -4.725274        -2.496271         2.445818
