19
Iteration:  4388charge 0 multiplicity 1
 C         0.447474        -1.477062        -0.069028
 C        -0.582748        -0.529113         0.501569
 C        -1.446180         0.276791         0.196970
 C        -2.666747         1.032177        -0.053231
 O        -2.451220         2.457589        -0.016363
 C        -3.670906         0.814411         1.186522
 C        -4.488015        -0.550541         1.192330
 C        -3.636512        -1.678698         1.872148
 O        -5.624769        -0.672619         0.910902
 H         1.405429        -0.976776        -0.430924
 H         0.607406        -2.236627         0.691340
 H        -0.040659        -1.995591        -0.877402
 H        -3.254253         0.671495        -0.844176
 H        -1.525254         2.600784        -0.191056
 H        -2.976486         0.983305         2.096241
 H        -4.386922         1.653260         1.045483
 H        -2.840844        -1.905984         1.115550
 H        -3.254212        -1.262765         2.803271
 H        -4.300405        -2.545942         1.886557
