19
Iteration:  4048charge 0 multiplicity 1
 C         0.832369        -1.266895         0.150748
 C        -0.506681        -0.568796         0.078683
 C        -1.420375         0.229566         0.285507
 C        -2.705901         0.906657         0.195370
 O        -2.413279         2.143097        -0.398449
 C        -3.695412         0.841547         1.475918
 C        -4.524854        -0.462771         1.274775
 C        -3.764586        -1.712273         1.501538
 O        -5.827444        -0.458824         1.123410
 H         1.413463        -1.225419        -0.771120
 H         1.257744        -0.698527         1.013566
 H         0.521226        -2.340075         0.419668
 H        -3.345773         0.377154        -0.431730
 H        -3.042415         2.931104        -0.209078
 H        -3.254215         0.850054         2.482893
 H        -4.272060         1.796389         1.371735
 H        -2.904464        -1.701442         0.657668
 H        -3.096122        -1.701178         2.427076
 H        -4.305337        -2.646693         1.414209
