19
Iteration:  1935
 C         0.493264        -1.267802         0.221646
 C        -0.762267        -0.551273         0.131247
 C        -1.719456         0.232373         0.104205
 C        -2.800377         1.228750         0.177557
 O        -2.424988         2.525483         0.588611
 C        -3.835607         0.794373         1.237295
 C        -4.369792        -0.624637         1.087184
 C        -3.848050        -1.730774         1.950265
 O        -4.974009        -0.932736         0.076648
 H         1.342796        -0.562638         0.132816
 H         0.592223        -1.737996         1.192605
 H         0.481446        -2.131626        -0.403253
 H        -3.395935         1.239384        -0.759707
 H        -1.653127         2.611045         0.109040
 H        -3.484969         1.006055         2.228576
 H        -4.599155         1.518370         1.126145
 H        -4.698881        -2.133172         2.567273
 H        -3.486938        -2.615323         1.222501
 H        -2.893005        -1.458054         2.539790
