19
Iteration:  3986charge 0 multiplicity 1
 C         0.574790        -1.061267         0.340070
 C        -0.702847        -0.453442         0.231266
 C        -1.709529         0.027324        -0.277513
 C        -2.850506         0.940664        -0.101866
 O        -2.113799         2.293585        -0.017017
 C        -3.567831         0.655985         1.147487
 C        -4.415072        -0.545982         1.268367
 C        -3.724870        -1.857899         1.702238
 O        -5.677027        -0.431945         1.246328
 H         1.214795        -1.150854        -0.570216
 H         1.202313        -0.562442         1.059458
 H         0.526285        -1.993129         0.816154
 H        -3.433525         0.978445        -1.131824
 H        -2.624161         2.934778        -0.634082
 H        -2.924217         0.643148         2.026295
 H        -4.266220         1.497367         1.176249
 H        -3.190889        -2.232249         0.869235
 H        -3.000180        -1.581414         2.476346
 H        -4.399673        -2.589845         2.056675
