19
Iteration:  4080charge 0 multiplicity 1
 C         0.731159        -1.316266         0.013083
 C        -0.230247        -0.315504         0.382871
 C        -1.305372         0.258881         0.407482
 C        -2.593582         0.810940        -0.020652
 O        -2.607518         2.190006        -0.373276
 C        -3.670328         0.758113         1.364418
 C        -4.569569        -0.464326         1.351874
 C        -3.900079        -1.804598         1.552309
 O        -5.748350        -0.337186         1.123003
 H         1.156882        -1.244448        -0.967308
 H         1.633530        -1.495508         0.657750
 H         0.235339        -2.349279         0.169094
 H        -3.199651         0.102391        -0.618460
 H        -3.497000         2.428937        -0.355971
 H        -3.065805         0.786095         2.282761
 H        -4.267211         1.690299         1.177914
 H        -3.156586        -1.915132         0.683128
 H        -3.371146        -1.984559         2.500153
 H        -4.616892        -2.578643         1.393997
