19
Iteration:  4044charge 0 multiplicity 1
 C         0.817539        -1.242774         0.183368
 C        -0.526770        -0.598877         0.060590
 C        -1.443504         0.192606         0.251061
 C        -2.697418         0.908698         0.177531
 O        -2.395268         2.154072        -0.382270
 C        -3.712603         0.850772         1.499594
 C        -4.541570        -0.434174         1.298409
 C        -3.727557        -1.727826         1.492447
 O        -5.798322        -0.460381         1.120544
 H         1.353591        -1.173069        -0.753241
 H         1.252564        -0.642892         0.985321
 H         0.579008        -2.281881         0.419899
 H        -3.311530         0.388796        -0.719229
 H        -3.006150         2.810581        -0.164437
 H        -3.293285         0.937904         2.527645
 H        -4.370473         1.721606         1.367300
 H        -3.002983        -1.690858         0.755094
 H        -3.126784        -1.700140         2.355285
 H        -4.296638        -2.656435         1.384421
