19
Iteration:  1300charge 0 multiplicity 1
 C         1.229725        -0.633807        -0.197507
 C        -0.198789        -0.174063         0.053236
 C        -1.268007         0.420355         0.306959
 C        -2.630369         0.690319         0.307568
 O        -2.770259         2.162210         0.264146
 C        -3.449680         0.197625         1.523262
 C        -4.574168        -0.688390         1.177880
 C        -5.487019        -1.303377         2.239085
 O        -4.742765        -0.934360        -0.005189
 H         1.631099        -0.171338        -1.101431
 H         1.769163        -0.355101         0.686770
 H         1.302741        -1.706543        -0.300180
 H        -3.132102         0.161695        -0.550596
 H        -3.639390         2.269914        -0.288858
 H        -2.866021        -0.573620         2.032027
 H        -3.648332         0.985671         2.283034
 H        -6.223059        -2.031340         1.855863
 H        -4.710031        -1.633626         2.986444
 H        -5.998408        -0.513472         2.831131
