19
Iteration:  3789charge 0 multiplicity 1
 C         0.428283        -1.693526        -0.154424
 C        -0.444187        -0.538422         0.318523
 C        -1.388312         0.276042         0.181804
 C        -2.733275         1.098440         0.185391
 O        -2.532623         2.435749        -0.102231
 C        -3.809996         0.912791         1.342294
 C        -4.462990        -0.515041         1.316566
 C        -3.523319        -1.532763         2.095658
 O        -5.516028        -0.741810         0.610858
 H         0.013692        -2.122572        -1.126252
 H         1.489128        -1.398889        -0.186886
 H         0.410887        -2.471430         0.610086
 H        -3.139446         0.674948        -0.651579
 H        -3.071302         2.596640        -0.831672
 H        -3.420409         1.212098         2.292070
 H        -4.686920         1.555840         1.127887
 H        -2.721903        -1.520618         1.437549
 H        -3.203938        -1.044204         2.977219
 H        -3.978747        -2.476335         2.308283
