19
Iteration:  3849charge 0 multiplicity 1
 C         0.313426        -1.461674        -0.040288
 C        -0.722467        -0.539387         0.295482
 C        -1.553761         0.329801         0.504309
 C        -2.768752         1.029389         0.148609
 O        -2.335987         2.350553        -0.401195
 C        -3.793639         0.901036         1.381301
 C        -4.267462        -0.502617         1.372680
 C        -3.508483        -1.785678         1.749785
 O        -5.423881        -0.575047         0.814016
 H         0.468003        -1.868781        -1.020339
 H         1.252604        -0.966636         0.260030
 H         0.199415        -2.253975         0.755609
 H        -3.276783         0.382942        -0.674004
 H        -3.064459         2.945909        -0.426973
 H        -3.236893         1.342682         2.239688
 H        -4.807547         1.254294         1.242220
 H        -2.983228        -2.454604         0.936296
 H        -2.766430        -1.687450         2.597481
 H        -4.300343        -2.546878         2.065235
