19
Iteration:  4201
 C         0.891683        -0.868034         0.351069
 C        -0.492130        -0.406603         0.024487
 C        -1.682912        -0.160997        -0.129457
 C        -2.847529         0.776998        -0.017419
 O        -2.413049         2.135373        -0.196048
 C        -3.448505         0.602873         1.375369
 C        -4.490671        -0.438771         1.435819
 C        -4.044264        -1.888813         1.621922
 O        -5.697459        -0.133474         1.094733
 H         1.563820        -0.279134        -0.324844
 H         1.289970        -0.748848         1.378242
 H         1.078373        -1.976027         0.135281
 H        -3.635685         0.514061        -0.820348
 H        -1.554312         2.268853         0.293476
 H        -2.499518         0.426290         2.024071
 H        -3.853799         1.612064         1.626577
 H        -3.114955        -2.043796         1.046541
 H        -3.803402        -2.275906         2.586325
 H        -4.646354        -2.722832         1.255739
