19
Iteration:   513charge 0 multiplicity 1
 C         1.229749        -0.629320        -0.465771
 C        -0.144005        -0.081888        -0.047848
 C        -1.298801         0.228611         0.201007
 C        -2.661600         0.711916         0.357729
 O        -2.585955         2.184792         0.735402
 C        -3.361174        -0.057273         1.476483
 C        -4.678813        -0.714508         1.077689
 C        -5.626219        -0.975651         2.298490
 O        -4.790699        -0.962881        -0.093882
 H         2.082579        -0.188615         0.019499
 H         1.186923        -1.681750        -0.126930
 H         1.243007        -0.723699        -1.565743
 H        -3.194412         0.706898        -0.615626
 H        -3.405377         2.388674         1.107334
 H        -2.707473        -1.009646         1.590961
 H        -3.542647         0.524824         2.389795
 H        -5.748072        -0.037641         2.752715
 H        -6.470506        -1.481912         1.850753
 H        -5.185987        -1.651558         3.068339
