19
Iteration:   687charge 0 multiplicity 1
 C         1.331236        -0.365088        -0.570694
 C        -0.073673        -0.131805        -0.153074
 C        -1.179416         0.289324         0.203889
 C        -2.602510         0.644607         0.473720
 O        -2.699998         2.033604         0.906134
 C        -3.308248        -0.357649         1.514943
 C        -4.690055        -0.733089         1.094231
 C        -6.004107        -0.333834         1.971982
 O        -4.750466        -1.383871         0.079147
 H         1.874187         0.556567        -0.421986
 H         1.799830        -1.165562         0.013345
 H         1.346004        -0.614285        -1.647462
 H        -3.201356         0.582936        -0.456769
 H        -1.942252         2.047735         1.472643
 H        -2.827558        -1.360783         1.550868
 H        -3.161860         0.141539         2.436939
 H        -5.769994         0.773232         2.032803
 H        -6.906293        -0.496461         1.350300
 H        -5.948962        -0.859372         3.006694
