19
Iteration:  1160charge 0 multiplicity 1
 C         1.567067        -0.052088         0.183505
 C         0.054721         0.008334         0.025307
 C        -1.188544        -0.023764        -0.046183
 C        -2.671628         0.406217        -0.006964
 O        -2.874300         1.824322         0.103631
 C        -3.222906        -0.288539         1.341278
 C        -4.770025        -0.576874         1.299219
 C        -5.555629        -1.067672         2.470544
 O        -5.269956        -0.564219         0.147502
 H         1.967062         0.563998        -0.690104
 H         2.018277         0.312044         1.107851
 H         2.072797        -0.985289        -0.031773
 H        -3.198252         0.086264        -0.858801
 H        -2.303794         2.146898         0.815228
 H        -2.867675        -1.320215         1.463846
 H        -2.967065         0.302562         2.221816
 H        -5.998708        -0.433923         3.208516
 H        -6.295974        -1.727735         2.036772
 H        -4.967967        -1.796361         2.998299
