19
Iteration:  3314
 C         0.316793        -1.355675        -0.810288
 C        -0.457612        -0.390255        -0.067665
 C        -1.425137         0.334074         0.144678
 C        -2.670941         1.075176         0.247452
 O        -2.461275         2.458417         0.313345
 C        -3.538190         0.655808         1.441803
 C        -4.332223        -0.741932         1.373970
 C        -5.131801        -1.040284         2.716596
 O        -4.348223        -1.331041         0.351716
 H         0.441843        -2.385099        -0.499004
 H         0.066437        -1.377491        -1.859586
 H         1.329079        -0.968496        -0.852834
 H        -3.148821         0.800299        -0.719302
 H        -1.831960         2.732697        -0.435559
 H        -2.964981         0.901829         2.362603
 H        -4.322579         1.339981         1.359261
 H        -4.582823        -1.731477         3.408901
 H        -5.378462        -0.136924         3.305068
 H        -6.031986        -1.484853         2.255109
