19
Iteration:  1567charge 0 multiplicity 1
 C         0.669788        -1.024805        -0.150008
 C        -0.516768        -0.335988         0.233462
 C        -1.480812         0.427128         0.252795
 C        -2.766044         1.015631         0.231195
 O        -2.509544         2.424125         0.766694
 C        -3.769822         0.604484         1.196965
 C        -4.348763        -0.775980         1.002136
 C        -4.698170        -1.493241         2.218723
 O        -4.646309        -1.211254        -0.128819
 H         1.070943        -0.555199        -1.083301
 H         1.427793        -0.822675         0.613747
 H         0.426097        -2.044517        -0.353302
 H        -3.293911         1.007170        -0.720943
 H        -2.073983         2.842652        -0.074667
 H        -3.318239         0.702678         2.185141
 H        -4.501331         1.423458         1.081512
 H        -5.664185        -1.047390         2.613261
 H        -4.842028        -2.613016         2.124191
 H        -4.072253        -1.133611         3.100750
