19
Iteration:  3168charge 0 multiplicity 1
 C         0.635602        -0.969298        -0.595810
 C        -0.668863        -0.416557        -0.269253
 C        -1.734175         0.119702        -0.288258
 C        -2.762295         1.029112         0.161974
 O        -2.229601         2.295200         0.609119
 C        -3.438028         0.499825         1.356677
 C        -4.276571        -0.772425         1.401283
 C        -5.013981        -0.699999         2.660784
 O        -4.684269        -1.470406         0.391698
 H         0.866371        -1.835929         0.080468
 H         0.536658        -1.479206        -1.587271
 H         1.549771        -0.381040        -0.563813
 H        -3.363806         1.280979        -0.649101
 H        -1.333980         2.329758         0.336765
 H        -2.743134         0.463601         2.146515
 H        -4.228761         1.255132         1.604610
 H        -4.419933        -0.357128         3.506517
 H        -5.925121        -0.096670         2.694064
 H        -5.476794        -1.706142         2.804181
