19
Iteration:   321
 C         1.355619        -0.571169        -0.028895
 C        -0.048211        -0.112992         0.057298
 C        -1.223718         0.182992         0.140292
 C        -2.640620         0.565796         0.135775
 O        -2.811505         1.935341         0.167547
 C        -3.285034        -0.128364         1.353185
 C        -4.703994        -0.509018         1.244311
 C        -5.078024        -1.824918         2.026820
 O        -5.474049         0.158221         0.560353
 H         1.944722        -0.159878         0.775221
 H         1.393377        -1.653668         0.031243
 H         1.757640        -0.240319        -0.988121
 H        -3.188246         0.129422        -0.790913
 H        -2.831046         2.060828        -0.816973
 H        -2.506029        -0.764013         1.833821
 H        -3.459508         0.795102         1.983735
 H        -4.585961        -1.876460         3.010610
 H        -6.145597        -2.082805         2.098496
 H        -4.619627        -2.717762         1.593302
