19
Iteration:  2776charge 0 multiplicity 1
 C         0.374207        -1.540377        -0.364745
 C        -0.538229        -0.403757        -0.094051
 C        -1.484159         0.283679         0.123500
 C        -2.706564         1.081737         0.226787
 O        -2.501579         2.537294         0.170468
 C        -3.601684         0.738489         1.383388
 C        -4.423646        -0.576467         1.331687
 C        -4.343156        -1.535453         2.560338
 O        -4.896438        -0.885397         0.252768
 H         0.883558        -2.077655         0.517105
 H        -0.156185        -2.261709        -1.050272
 H         1.152489        -1.222611        -1.119124
 H        -3.164044         0.874598        -0.815859
 H        -1.939803         2.806988         0.980516
 H        -2.890900         0.711117         2.290004
 H        -4.334543         1.533446         1.576231
 H        -4.513546        -1.071647         3.503521
 H        -4.980425        -2.362756         2.295872
 H        -3.286340        -1.737496         2.551057
