19
Iteration:  4449charge 0 multiplicity 1
 C         0.223000        -1.492945         0.292454
 C        -0.788722        -0.610311        -0.116846
 C        -1.670418         0.166945         0.064528
 C        -2.816549         1.040435         0.106850
 O        -2.418534         2.449129         0.144254
 C        -3.732732         0.888795         1.279454
 C        -4.237740        -0.458184         1.272274
 C        -3.444482        -1.634479         1.848671
 O        -5.279966        -0.687211         0.707292
 H         1.197182        -1.057553         0.383798
 H         0.004969        -1.826870         1.335951
 H         0.330568        -2.445568        -0.339511
 H        -3.286625         0.913835        -0.825029
 H        -2.060429         2.747003        -0.723081
 H        -3.376461         1.268255         2.187270
 H        -4.515686         1.531097         0.961695
 H        -2.552013        -1.777789         1.262903
 H        -3.036475        -1.682515         2.881398
 H        -4.210725        -2.465279         1.803969
