19
Iteration:  4806
 C         0.631993        -1.100666        -0.587928
 C        -0.743477        -0.471620        -0.496147
 C        -1.719944         0.252978        -0.470785
 C        -2.858392         0.997326         0.197191
 O        -2.399863         2.345509         0.363546
 C        -3.068799         0.309485         1.625184
 C        -4.277754        -0.663903         1.551556
 C        -5.395664        -0.703912         2.595760
 O        -4.354648        -1.368830         0.554106
 H         1.173924        -0.518313         0.237901
 H         0.656953        -2.164702        -0.332792
 H         1.138740        -0.895785        -1.545913
 H        -3.738762         1.016521        -0.371145
 H        -1.581836         2.315704         0.795318
 H        -2.171534        -0.144096         2.040870
 H        -3.412257         1.128872         2.268343
 H        -4.939673        -0.510473         3.562171
 H        -5.941876         0.308033         2.539846
 H        -6.181848        -1.439572         2.648170
