19
Iteration:  3282
 C         0.417040        -1.361725        -0.857563
 C        -0.445610        -0.351982        -0.131091
 C        -1.561250         0.145461         0.203333
 C        -2.756975         0.938255         0.311142
 O        -2.634537         2.317761         0.311261
 C        -3.485786         0.676424         1.631586
 C        -4.332351        -0.477017         1.312663
 C        -5.107398        -0.917474         2.545158
 O        -4.178581        -1.258436         0.348254
 H         0.499814        -2.307578        -0.377477
 H         0.020674        -1.425334        -1.839347
 H         1.361393        -0.845022        -0.868414
 H        -3.343015         0.680387        -0.477437
 H        -2.033532         2.454967        -0.460580
 H        -2.674874         0.397946         2.355171
 H        -3.851609         1.505946         2.120821
 H        -4.397800        -1.604333         3.088336
 H        -5.533413        -0.073551         3.132386
 H        -6.018596        -1.383473         2.112414
