19
Iteration:  4071charge 0 multiplicity 1
 C         0.777657        -1.351483         0.075370
 C        -0.293234        -0.358628         0.251067
 C        -1.330342         0.254043         0.424350
 C        -2.617168         0.830220         0.060438
 O        -2.557154         2.176933        -0.416001
 C        -3.686483         0.769232         1.422592
 C        -4.558965        -0.418252         1.319286
 C        -3.869967        -1.760842         1.508940
 O        -5.799050        -0.404849         1.124090
 H         1.072875        -1.187107        -0.984015
 H         1.577949        -1.158763         0.802441
 H         0.247921        -2.334959         0.076597
 H        -3.016114         0.205381        -0.719875
 H        -3.367185         2.575787        -0.246983
 H        -3.062282         0.768739         2.316435
 H        -4.308521         1.690316         1.471600
 H        -2.964448        -1.921084         0.753642
 H        -3.273365        -1.745019         2.499100
 H        -4.567630        -2.613068         1.488052
