19
Iteration:  1530charge 0 multiplicity 1
 C         0.844746        -0.899551        -0.203569
 C        -0.489590        -0.305071         0.096379
 C        -1.600036         0.118152         0.372996
 C        -2.841807         0.986643         0.359247
 O        -2.384317         2.536115         0.538578
 C        -3.977472         0.709576         1.321290
 C        -4.475287        -0.731535         1.030614
 C        -4.875696        -1.650688         2.285385
 O        -4.455907        -1.142096        -0.139616
 H         1.213088        -0.443175        -1.178532
 H         1.635056        -0.784520         0.570048
 H         0.910459        -2.023860        -0.323520
 H        -3.146095         0.959822        -0.660805
 H        -1.442736         2.604482         0.100076
 H        -3.515058         0.712058         2.339320
 H        -4.684559         1.586994         1.309967
 H        -5.211117        -0.890496         3.031591
 H        -5.638543        -2.410464         2.223949
 H        -3.959417        -2.166212         2.565022
