19
Iteration:  2586
 C         0.252395        -1.590404        -0.155855
 C        -0.783822        -0.555086         0.150559
 C        -1.668427         0.295649         0.003007
 C        -2.794714         1.286871         0.074568
 O        -2.428713         2.548170         0.471431
 C        -3.756344         0.773416         1.199013
 C        -4.238155        -0.564322         1.162193
 C        -3.819535        -1.437006         2.380318
 O        -4.946629        -1.058239         0.229016
 H         1.001658        -1.667547         0.669506
 H        -0.145311        -2.597237        -0.536966
 H         0.829169        -1.136207        -1.052243
 H        -3.418372         1.339107        -0.910039
 H        -1.774541         2.467163         1.169154
 H        -3.102827         0.818366         2.136128
 H        -4.523989         1.530861         0.977334
 H        -3.565247        -2.462991         2.128321
 H        -3.115400        -0.935869         2.998121
 H        -4.757533        -1.514108         2.957066
