19
Iteration:  1841
 C         0.584343        -1.194150        -0.068765
 C        -0.638798        -0.391284         0.069150
 C        -1.613846         0.269518         0.250239
 C        -2.801702         1.177787         0.290654
 O        -2.296152         2.472851         0.663361
 C        -4.020054         0.776136         1.076609
 C        -4.350409        -0.792399         1.022732
 C        -4.119725        -1.593336         2.235588
 O        -4.896640        -1.022574        -0.049976
 H         1.462152        -0.708847        -0.563404
 H         0.861060        -1.602428         0.941306
 H         0.165547        -2.132418        -0.555824
 H        -3.212725         1.367355        -0.704203
 H        -1.856858         2.298073         1.582607
 H        -4.097471         1.138743         2.134316
 H        -4.803858         1.443561         0.578698
 H        -3.693465        -1.233361         3.139602
 H        -4.983080        -2.146038         2.543695
 H        -3.505035        -2.467890         2.077929
