19
Iteration:  3510
 C         0.282480        -1.528500        -0.229670
 C        -0.656085        -0.467983         0.036959
 C        -1.607715         0.297309        -0.112288
 C        -2.801966         1.110017         0.074720
 O        -2.529962         2.507296         0.185852
 C        -3.433416         0.665985         1.458691
 C        -4.312402        -0.502244         1.277678
 C        -4.378026        -1.382821         2.621213
 O        -4.740313        -0.973515         0.281321
 H        -0.087101        -2.581857        -0.369790
 H         0.847483        -1.281500        -1.143808
 H         1.078177        -1.608029         0.559633
 H        -3.499844         0.868191        -0.701010
 H        -1.762638         2.835064        -0.416838
 H        -2.513207         0.579921         2.087568
 H        -4.159022         1.420504         1.936536
 H        -3.343217        -1.433280         2.907820
 H        -4.996762        -1.101925         3.461392
 H        -4.629945        -2.344792         2.182030
