19
Iteration:  1610charge 0 multiplicity 1
 C         0.626223        -1.232214         0.015438
 C        -0.469873        -0.251095        -0.043840
 C        -1.488407         0.471543         0.100732
 C        -2.749106         1.167141         0.251317
 O        -2.593749         2.725572         0.704553
 C        -3.652758         0.586302         1.279070
 C        -4.369297        -0.794961         1.007739
 C        -4.673022        -1.646375         2.223118
 O        -4.699726        -1.312021        -0.077174
 H         1.510952        -1.369791        -0.668448
 H         1.061094        -1.093871         1.011850
 H         0.106536        -2.170551         0.024073
 H        -3.074700         1.345742        -0.695322
 H        -1.638315         3.104751         0.827061
 H        -3.113711         0.605423         2.232328
 H        -4.522878         1.289873         1.312783
 H        -5.743922        -1.751652         2.108018
 H        -4.244278        -2.658353         2.018036
 H        -4.598315        -1.334656         3.290229
