19
Iteration:   924
 C         1.404977         0.211926         0.390247
 C        -0.031373         0.063371        -0.031754
 C        -1.232625         0.043903         0.012736
 C        -2.583187         0.241705        -0.088031
 O        -2.685909         1.554297         0.584068
 C        -3.203015        -1.004552         0.769106
 C        -4.801985        -0.714270         1.105728
 C        -5.111412        -0.154542         2.492585
 O        -5.602469        -0.708322         0.165769
 H         1.623836         1.192422        -0.078125
 H         1.589585         0.202474         1.465427
 H         2.125012        -0.418792        -0.102670
 H        -3.108289         0.538067        -0.972900
 H        -3.374275         1.562317         1.336569
 H        -3.377375        -1.908489         0.085633
 H        -2.684107        -1.307166         1.678831
 H        -5.117402         1.015758         2.343772
 H        -6.225089        -0.204518         2.658629
 H        -4.426222        -0.309717         3.281741
