19
Iteration:  2477charge 0 multiplicity 1
 C         0.398757        -1.382269        -0.042762
 C        -0.784915        -0.598684         0.184926
 C        -1.652354         0.192899         0.143133
 C        -2.752356         1.106744         0.229707
 O        -2.441950         2.525660         0.243688
 C        -3.803366         0.868560         1.318407
 C        -4.318463        -0.627309         1.121207
 C        -3.689609        -1.630129         2.140847
 O        -5.150676        -0.854753         0.308562
 H         1.189057        -1.372585         0.748808
 H         0.142880        -2.488141        -0.264258
 H         0.793579        -0.969091        -1.054359
 H        -3.371542         1.041956        -0.747137
 H        -1.595094         2.642443         0.584617
 H        -3.434580         1.340005         2.276398
 H        -4.661980         1.525969         1.017800
 H        -4.384294        -1.551906         3.000212
 H        -3.659716        -2.606553         1.606809
 H        -2.599918        -1.265029         2.363562
