19
Iteration:  4565charge 0 multiplicity 1
 C         0.321538        -1.560748        -0.084859
 C        -0.813855        -0.587336        -0.303456
 C        -1.652861         0.231538        -0.001389
 C        -2.869035         1.186147         0.239975
 O        -2.466104         2.473752         0.069037
 C        -3.622831         0.815940         1.430081
 C        -4.200468        -0.568371         1.292643
 C        -4.045301        -1.457538         2.470305
 O        -4.798245        -0.874716         0.323007
 H         1.153332        -0.950453         0.314830
 H         0.001399        -2.259424         0.667597
 H         0.623544        -2.065734        -0.958547
 H        -3.686332         0.991068        -0.612332
 H        -2.225016         2.766528         0.960192
 H        -2.881642         0.689526         2.278508
 H        -4.421093         1.603909         1.719969
 H        -2.970165        -1.561598         2.504314
 H        -4.342933        -0.988824         3.417586
 H        -4.701021        -2.334035         2.404943
