19
Iteration:  1693charge 0 multiplicity 1
 C         0.404726        -1.226166         0.131513
 C        -0.867311        -0.488493         0.086928
 C        -1.673895         0.388996         0.059717
 C        -2.841119         1.232788         0.317431
 O        -2.603962         2.575720         0.452336
 C        -3.512203         0.585412         1.484934
 C        -4.186352        -0.738249         1.054447
 C        -4.511143        -1.737834         2.102923
 O        -4.395275        -0.919645        -0.133543
 H         0.903691        -0.681861        -0.652867
 H         0.914755        -1.017879         1.071174
 H         0.360392        -2.308629        -0.047265
 H        -3.439994         1.228078        -0.675059
 H        -1.700016         2.809373         0.776974
 H        -2.788089         0.596866         2.318364
 H        -4.381607         1.110871         1.872702
 H        -4.631890        -2.643396         1.467179
 H        -3.773842        -2.034545         2.874867
 H        -5.493271        -1.558804         2.534943
