19
Iteration:  3570charge 0 multiplicity 1
 C         0.272015        -1.627377        -0.336540
 C        -0.477522        -0.444960        -0.047529
 C        -1.271373         0.429148         0.297683
 C        -2.621851         0.975335         0.177314
 O        -2.657833         2.494113         0.110793
 C        -3.630826         0.881669         1.303667
 C        -4.442219        -0.500438         1.322011
 C        -4.267862        -1.465411         2.572560
 O        -4.903187        -0.986752         0.340447
 H        -0.526445        -2.253902        -0.673582
 H         0.803043        -1.428879        -1.268872
 H         0.891300        -1.968556         0.453535
 H        -2.901213         0.599961        -0.896667
 H        -2.302258         2.839727        -0.792269
 H        -3.176807         1.138609         2.248226
 H        -4.399066         1.595934         1.195908
 H        -3.292793        -1.992232         2.416241
 H        -4.108789        -1.153975         3.633201
 H        -5.008643        -2.274730         2.511959
