19
Iteration:  2100charge 0 multiplicity 1
 C         0.562768        -1.295029         0.378628
 C        -0.678297        -0.446208         0.198699
 C        -1.697027         0.270210         0.066216
 C        -2.880827         1.154171         0.152449
 O        -2.324737         2.483854         0.244887
 C        -3.782937         0.723265         1.409793
 C        -4.393764        -0.633199         1.081200
 C        -3.575518        -1.857110         1.562644
 O        -5.454128        -0.733479         0.483466
 H         1.447498        -0.740908         0.800516
 H         0.387549        -2.024429         1.189128
 H         0.778440        -1.944479        -0.468543
 H        -3.426955         1.292608        -0.792315
 H        -1.318399         2.597880         0.053333
 H        -3.344783         0.859988         2.402067
 H        -4.624139         1.415605         1.315683
 H        -2.507647        -1.717565         1.311878
 H        -3.754021        -1.801787         2.675222
 H        -4.130216        -2.737884         1.179536
