19
Iteration:  1476charge 0 multiplicity 1
 C         0.884861        -0.805764        -0.137002
 C        -0.480287        -0.285426         0.112480
 C        -1.660237         0.116115         0.204691
 C        -2.790451         1.115070         0.261509
 O        -2.441224         2.455593         0.357567
 C        -3.715139         0.531840         1.435827
 C        -4.395338        -0.768510         1.121841
 C        -5.094525        -1.631571         2.237043
 O        -4.451829        -1.112248        -0.052324
 H         1.452142        -0.429357        -1.035461
 H         1.505057        -0.551092         0.753920
 H         0.804047        -1.924794        -0.150409
 H        -3.253312         1.216635        -0.666736
 H        -2.074671         2.625411         1.307407
 H        -3.152680         0.493045         2.401264
 H        -4.522287         1.296219         1.676524
 H        -4.714732        -1.258206         3.259638
 H        -6.162369        -1.379750         2.244434
 H        -4.836112        -2.666132         1.983450
