19
Iteration:  1305
 C         1.157536        -0.635883        -0.197028
 C        -0.239417        -0.202622         0.083686
 C        -1.225877         0.446641         0.279268
 C        -2.622752         0.687050         0.273999
 O        -2.793392         2.139752         0.293633
 C        -3.403848         0.265067         1.532707
 C        -4.629221        -0.700579         1.161371
 C        -5.423507        -1.295625         2.220646
 O        -4.722473        -0.959995        -0.002974
 H         1.824109        -0.215856        -1.038081
 H         1.817667        -0.313558         0.670861
 H         1.275514        -1.742871        -0.291646
 H        -3.266662         0.289665        -0.543508
 H        -3.628582         2.262879        -0.100728
 H        -2.771084        -0.517611         2.038443
 H        -3.505131         1.000217         2.319831
 H        -6.145737        -2.064657         1.898302
 H        -4.875387        -1.679451         3.076311
 H        -6.089343        -0.483105         2.566536
