19
Iteration:  2740charge 0 multiplicity 1
 C         0.256493        -1.569654        -0.177543
 C        -0.699126        -0.470079        -0.285559
 C        -1.494598         0.420678         0.111281
 C        -2.742300         1.204902         0.333371
 O        -2.430251         2.612776         0.043012
 C        -3.674850         0.865964         1.479379
 C        -4.138556        -0.681551         1.332517
 C        -4.354179        -1.728698         2.447262
 O        -4.819192        -0.887007         0.261319
 H         0.622354        -1.913055         0.795088
 H        -0.308045        -2.437684        -0.593712
 H         1.129631        -1.365643        -0.838227
 H        -3.382049         0.857940        -0.575350
 H        -1.548744         2.767384         0.572803
 H        -2.940808         0.840048         2.393239
 H        -4.506596         1.523002         1.710448
 H        -4.063678        -1.360139         3.482142
 H        -5.325457        -2.177326         2.482216
 H        -3.788496        -2.639909         2.308387
