19
Iteration:   845charge 0 multiplicity 1
 C         1.487186        -0.083965        -0.056827
 C         0.068428         0.156342         0.049643
 C        -1.130494         0.210153         0.157073
 C        -2.524133         0.402495         0.248777
 O        -2.996767         1.671083         0.713085
 C        -3.195615        -0.924760         0.926436
 C        -4.731343        -0.685025         1.009901
 C        -5.321375        -0.034698         2.228229
 O        -5.523418        -1.045536         0.190383
 H         2.168314         0.779737        -0.195692
 H         1.839499        -0.452053         0.898496
 H         1.578518        -0.909952        -0.726040
 H        -2.863273         0.549434        -0.768277
 H        -2.164836         2.043495         1.283683
 H        -2.943249        -1.776055         0.266313
 H        -2.846673        -0.945191         1.968926
 H        -5.306392         1.097352         2.138889
 H        -6.400837        -0.342035         2.197411
 H        -4.873408        -0.389834         3.235842
