19
Iteration:   773
 C         1.414508        -0.288291        -0.348175
 C         0.024940        -0.064130        -0.026271
 C        -1.120050         0.362282         0.148042
 C        -2.622170         0.545848         0.367687
 O        -3.008338         1.856075         0.902737
 C        -3.158980        -0.655556         1.285619
 C        -4.634625        -0.751851         1.094168
 C        -5.634871        -0.059072         2.026489
 O        -5.137555        -1.277296         0.081482
 H         2.029540         0.624130        -0.386807
 H         1.896408        -0.865707         0.479013
 H         1.522767        -0.937151        -1.238820
 H        -3.091553         0.582289        -0.631660
 H        -2.179666         2.475145         0.881967
 H        -2.743818        -1.561678         0.757951
 H        -2.838148        -0.566243         2.304850
 H        -5.420165         0.854119         2.571681
 H        -6.639477        -0.039551         1.621215
 H        -5.714878        -0.748247         2.845150
