19
Iteration:  3826charge 0 multiplicity 1
 C         0.241418        -1.516281        -0.087292
 C        -0.655068        -0.413465         0.202900
 C        -1.507396         0.340704         0.624073
 C        -2.714113         1.025119         0.228716
 O        -2.434693         2.208875        -0.266063
 C        -3.708168         1.007058         1.314190
 C        -4.323849        -0.466917         1.309605
 C        -3.550671        -1.633417         1.818826
 O        -5.399807        -0.716648         0.731182
 H         0.105641        -1.946452        -1.086123
 H         1.321188        -1.326364        -0.091418
 H         0.092761        -2.316766         0.659421
 H        -3.230779         0.315481        -0.557239
 H        -3.177540         2.666346        -0.736494
 H        -3.158991         1.309811         2.233075
 H        -4.554273         1.648668         1.115258
 H        -2.812688        -2.049872         1.014273
 H        -2.802931        -1.487713         2.682271
 H        -4.105903        -2.601032         1.922311
