19
Iteration:  4787
 C         0.540025        -1.048426        -0.419502
 C        -0.708628        -0.368356        -0.652754
 C        -1.797288         0.197097        -0.562198
 C        -2.778097         0.954983         0.195100
 O        -2.329258         2.283278         0.353100
 C        -3.147806         0.408322         1.638832
 C        -4.262531        -0.643315         1.592491
 C        -5.307361        -0.765072         2.605977
 O        -4.395454        -1.336341         0.564238
 H         1.168612        -0.607940         0.275741
 H         0.279085        -2.078215        -0.192001
 H         1.155302        -1.051842        -1.351126
 H        -3.742133         1.031097        -0.421019
 H        -1.445877         2.232771         0.682536
 H        -2.285018        -0.135027         2.035927
 H        -3.229290         1.180744         2.508235
 H        -5.301943        -0.928194         3.699697
 H        -5.945300         0.189280         2.638384
 H        -5.771320        -1.641212         2.172603
