19
Iteration:  3502charge 0 multiplicity 1
 C         0.360473        -1.504745        -0.172928
 C        -0.698156        -0.480580        -0.042887
 C        -1.675152         0.218251        -0.169249
 C        -2.846812         1.067200         0.061366
 O        -2.529312         2.495588         0.264639
 C        -3.443372         0.728903         1.404446
 C        -4.286301        -0.465829         1.354352
 C        -4.386599        -1.363645         2.586529
 O        -4.671893        -0.956722         0.268169
 H        -0.224746        -2.351726        -0.324870
 H         0.813641        -1.347583        -1.129715
 H         1.093376        -1.577286         0.611777
 H        -3.670403         0.903549        -0.721901
 H        -1.718022         2.580909        -0.331175
 H        -2.679945         0.357251         2.129505
 H        -3.935830         1.553153         1.860273
 H        -3.386813        -1.396820         3.025611
 H        -4.986843        -1.211167         3.431455
 H        -4.647183        -2.331559         2.169952
