19
Iteration:  1277
 C         1.314888        -0.534480        -0.237766
 C        -0.075585        -0.004098         0.078184
 C        -1.239186         0.177545         0.335078
 C        -2.581834         0.719611         0.371462
 O        -2.747158         2.193504         0.166474
 C        -3.367961         0.150058         1.641658
 C        -4.668279        -0.767638         1.148697
 C        -5.508865        -1.300112         2.270693
 O        -4.967090        -0.931717        -0.069746
 H         1.767417        -0.204518        -1.143761
 H         1.917830        -0.354086         0.658497
 H         1.219727        -1.641671        -0.293435
 H        -3.291891         0.222481        -0.321641
 H        -3.209600         2.144070        -0.632436
 H        -2.759839        -0.417964         2.353130
 H        -3.836846         0.979523         2.246100
 H        -6.509393        -1.476080         1.902786
 H        -4.953174        -2.112086         2.854938
 H        -5.661193        -0.438466         3.031470
