19
Iteration:  3211charge 0 multiplicity 1
 C         0.633173        -1.200145        -0.621772
 C        -0.527966        -0.338526        -0.475679
 C        -1.593124         0.154005        -0.183804
 C        -2.785589         0.988355         0.183546
 O        -2.317928         2.382328         0.467951
 C        -3.472627         0.545303         1.500476
 C        -4.426718        -0.567090         1.456396
 C        -5.272778        -0.967301         2.708829
 O        -4.389579        -1.320405         0.444541
 H         0.762666        -2.062519         0.084223
 H         0.576204        -1.657187        -1.656808
 H         1.568738        -0.610166        -0.561250
 H        -3.586894         0.897663        -0.609168
 H        -1.851000         2.698238        -0.335320
 H        -2.729903         0.179642         2.188733
 H        -3.924343         1.430897         2.062319
 H        -4.518852        -0.980892         3.483342
 H        -6.025352        -0.206741         2.896034
 H        -5.853583        -1.885234         2.547498
