19
Iteration:  1347
 C         1.074431        -0.866800        -0.069699
 C        -0.197063        -0.102087         0.084842
 C        -1.300204         0.405943         0.113588
 C        -2.747996         0.943441         0.273010
 O        -2.861547         2.396560         0.363031
 C        -3.347529         0.105310         1.537607
 C        -4.404715        -0.855824         1.073458
 C        -5.363011        -1.259652         2.324373
 O        -4.680380        -1.079611        -0.078085
 H         1.545591        -0.571112        -1.048186
 H         1.688502        -0.683385         0.822770
 H         0.738319        -1.881514        -0.179624
 H        -3.276281         0.515628        -0.672625
 H        -3.730637         2.754342         0.292029
 H        -2.503572        -0.490280         1.921199
 H        -3.585633         0.824656         2.296037
 H        -5.697945        -2.346681         2.416311
 H        -5.099763        -0.646454         3.178414
 H        -6.233031        -0.808875         1.868855
