19
Iteration:  4468
 C         0.273499        -1.565294         0.348920
 C        -0.873978        -0.619961         0.039958
 C        -1.780110         0.225967        -0.179435
 C        -2.872150         1.198907        -0.020443
 O        -2.335243         2.530546         0.160853
 C        -3.645896         0.893348         1.334258
 C        -4.258967        -0.578821         1.262350
 C        -3.486048        -1.703330         1.941341
 O        -5.276750        -0.763731         0.653063
 H         1.207318        -0.908856         0.337653
 H         0.240306        -2.040016         1.372209
 H         0.453379        -2.337439        -0.452968
 H        -3.616075         1.099005        -0.821137
 H        -1.888080         2.864823        -0.596162
 H        -2.803644         1.007104         2.042504
 H        -4.453993         1.684550         1.510421
 H        -2.575919        -1.788393         1.319797
 H        -3.222502        -1.270716         2.945396
 H        -4.122311        -2.594046         2.112492
