19
Iteration:  2065
 C         0.397083        -1.420397         0.352203
 C        -0.616999        -0.360421         0.239885
 C        -1.608639         0.337447         0.248275
 C        -2.750096         1.135114         0.118615
 O        -2.601424         2.508746         0.211112
 C        -3.643309         0.747227         1.456873
 C        -4.398423        -0.671242         1.107351
 C        -3.604678        -1.851572         1.582043
 O        -5.329071        -0.684909         0.355040
 H         1.461497        -1.091210         0.561654
 H        -0.009779        -2.013715         1.205182
 H         0.480667        -2.075448        -0.538918
 H        -3.370156         0.738173        -0.725495
 H        -1.626264         2.705292        -0.024995
 H        -2.921802         0.922216         2.283663
 H        -4.395222         1.546431         1.402413
 H        -2.985623        -2.305348         0.855632
 H        -3.007366        -1.773653         2.448070
 H        -4.339733        -2.620445         1.728028
