19
Iteration:    83charge 0 multiplicity 1
 C         1.450304         0.248083         0.113648
 C         0.054419        -0.101485        -0.076066
 C        -1.156628        -0.153305         0.042257
 C        -2.602094        -0.069036         0.041290
 O        -3.138648         1.114700        -0.447952
 C        -3.129170        -0.460764         1.425110
 C        -4.705776        -0.285812         1.493455
 C        -5.598775        -1.510657         1.287009
 O        -5.087157         0.833506         1.752605
 H         1.749232         0.497850         1.173457
 H         2.090855        -0.633516        -0.163040
 H         1.750330         1.140025        -0.486545
 H        -2.901374        -1.004599        -0.597510
 H        -2.484728         1.725473        -0.810318
 H        -2.862292        -1.540362         1.660549
 H        -2.727758         0.269391         2.138200
 H        -5.031656        -2.211285         2.004885
 H        -6.649435        -1.214324         1.515023
 H        -5.362390        -2.001846         0.315195
