19
Iteration:  1010charge 0 multiplicity 1
 C         1.492516         0.220092         0.373138
 C         0.030139         0.107645         0.204822
 C        -1.165628         0.050656        -0.044604
 C        -2.593755         0.149472         0.015292
 O        -3.036206         1.487446         0.367877
 C        -3.242135        -1.001504         0.804022
 C        -4.738880        -0.536898         1.103675
 C        -5.055563        -0.374137         2.543917
 O        -5.541902        -0.456149         0.182733
 H         2.095999         1.072063        -0.029308
 H         1.663431         0.265799         1.446225
 H         1.919366        -0.725654         0.128248
 H        -2.818318        -0.080788        -1.075893
 H        -3.293862         2.002129        -0.358056
 H        -3.404375        -1.835697         0.064978
 H        -2.637994        -1.415470         1.603134
 H        -4.315874         0.420110         2.972845
 H        -6.082354        -0.073311         2.928623
 H        -4.901183        -1.347989         3.012114
