19
Iteration:  3972
 C         0.595293        -1.099936         0.454550
 C        -0.692540        -0.452736         0.084578
 C        -1.683060         0.124397        -0.344847
 C        -2.719648         1.115139        -0.200944
 O        -2.071143         2.303049        -0.041591
 C        -3.586582         0.665108         1.168789
 C        -4.466286        -0.676132         1.346091
 C        -3.789344        -1.875518         1.787997
 O        -5.750279        -0.509987         1.253282
 H         1.020235        -1.173166        -0.524561
 H         1.164170        -0.380801         1.069370
 H         0.400366        -2.138647         0.842444
 H        -3.585282         1.152244        -0.922126
 H        -2.371485         2.937704        -0.688240
 H        -2.763499         0.623165         1.886338
 H        -4.255921         1.513177         1.476983
 H        -3.301747        -2.340654         0.787963
 H        -2.904004        -1.629349         2.461534
 H        -4.452516        -2.662604         2.199142
