19
Iteration:   302
 C         1.358803        -0.486583        -0.031181
 C        -0.032508        -0.246793         0.145683
 C        -1.151079         0.231366         0.057356
 C        -2.566882         0.471070         0.071220
 O        -2.938335         1.919695         0.028238
 C        -3.243914        -0.030322         1.480767
 C        -4.682463        -0.560494         1.240755
 C        -5.167754        -1.810907         1.925997
 O        -5.500987         0.164340         0.710134
 H         1.868902        -0.029988         0.865068
 H         1.696847        -1.540060        -0.103124
 H         1.663908        -0.116724        -1.014384
 H        -3.178344        -0.011355        -0.710039
 H        -2.065711         2.418180        -0.177409
 H        -2.604429        -1.007606         1.764044
 H        -3.030359         0.718243         2.212496
 H        -4.527992        -1.991665         2.839837
 H        -6.240135        -1.674472         1.996942
 H        -5.028810        -2.705915         1.345867
