19
Iteration:  2104charge 0 multiplicity 1
 C         0.556082        -1.252135         0.386781
 C        -0.707277        -0.456093         0.184434
 C        -1.679747         0.241001         0.077240
 C        -2.853949         1.151802         0.127127
 O        -2.310267         2.465848         0.266785
 C        -3.789768         0.736232         1.363002
 C        -4.423045        -0.608630         1.064650
 C        -3.556707        -1.896415         1.582102
 O        -5.448251        -0.718155         0.508786
 H         1.381196        -0.705798         0.760276
 H         0.402113        -2.006904         1.158198
 H         0.727626        -1.857065        -0.508756
 H        -3.438087         1.277146        -0.773631
 H        -1.417136         2.609352         0.139544
 H        -3.419116         0.783450         2.385490
 H        -4.586868         1.493920         1.315970
 H        -2.459854        -1.720433         1.352593
 H        -3.873835        -1.802247         2.663612
 H        -4.026708        -2.825776         1.189820
