19
Iteration:  2305charge 0 multiplicity 1
 C         0.745603        -1.164158         0.110309
 C        -0.448555        -0.324896         0.204764
 C        -1.660476         0.061944         0.143118
 C        -2.797696         0.990363         0.263815
 O        -2.516070         2.358457        -0.007008
 C        -3.686758         0.723972         1.479273
 C        -4.465485        -0.609470         1.225049
 C        -3.884904        -1.894632         1.834227
 O        -5.411328        -0.478894         0.431587
 H         1.641665        -0.949674         0.724589
 H         0.342768        -2.136342         0.357718
 H         1.041741        -1.209653        -0.938942
 H        -3.441061         0.697991        -0.537215
 H        -1.664109         2.474898         0.601260
 H        -3.226878         0.817936         2.508601
 H        -4.408097         1.544768         1.357593
 H        -4.043327        -2.429528         0.882539
 H        -2.799527        -1.727587         1.949724
 H        -4.525345        -2.349855         2.685934
