19
Iteration:  1588charge 0 multiplicity 1
 C         0.714459        -1.188098        -0.053096
 C        -0.486420        -0.315064         0.135497
 C        -1.443851         0.411087         0.148447
 C        -2.700408         1.268917         0.195049
 O        -2.584248         2.587525         0.731504
 C        -3.784157         0.538206         1.219636
 C        -4.382225        -0.807717         0.982942
 C        -4.738052        -1.590836         2.326671
 O        -4.679734        -1.242763        -0.147533
 H         1.164750        -0.784634        -1.020140
 H         1.499312        -1.043038         0.681293
 H         0.394871        -2.165406        -0.305762
 H        -3.053010         1.363892        -0.790987
 H        -1.894753         3.151455         0.466576
 H        -3.241967         0.523794         2.168351
 H        -4.692852         1.182632         1.343103
 H        -5.738797        -1.552844         2.766857
 H        -4.442398        -2.660553         2.182110
 H        -4.191592        -1.148979         3.209567
