19
Iteration:  4777charge 0 multiplicity 1
 C         0.496311        -1.054314        -0.418894
 C        -0.694146        -0.283046        -0.683569
 C        -1.810793         0.101397        -0.498331
 C        -2.780078         1.000198         0.129718
 O        -2.293583         2.313271         0.355605
 C        -3.126641         0.318469         1.652999
 C        -4.265983        -0.603476         1.553040
 C        -5.327679        -0.831990         2.629742
 O        -4.373923        -1.302105         0.582630
 H         0.915663        -0.567198         0.390538
 H         0.244416        -2.037302        -0.009636
 H         1.201929        -1.190285        -1.264391
 H        -3.755816         1.083556        -0.491214
 H        -1.318641         2.245976         0.502910
 H        -2.268769        -0.112875         2.183945
 H        -3.613961         1.224719         2.151838
 H        -4.802027        -0.947571         3.626431
 H        -5.974870         0.073216         2.636140
 H        -6.089914        -1.551768         2.386806
