19
Iteration:  3463charge 0 multiplicity 1
 C         0.348465        -1.209227        -0.074948
 C        -0.922495        -0.649786        -0.449413
 C        -1.844958         0.167155        -0.225666
 C        -2.850228         1.146857         0.221971
 O        -2.191927         2.450811         0.265965
 C        -3.557030         0.694813         1.463541
 C        -4.140815        -0.655461         1.380371
 C        -4.510897        -1.361657         2.665943
 O        -4.566786        -0.979014         0.245359
 H         0.215211        -2.355940         0.131970
 H         1.169173        -1.319492        -0.850391
 H         0.787681        -0.866284         0.887536
 H        -3.601103         1.233019        -0.530080
 H        -1.656599         2.532797        -0.550491
 H        -3.013383         0.943387         2.354352
 H        -4.449997         1.434162         1.384207
 H        -3.609970        -1.474495         3.329453
 H        -5.377405        -0.728993         3.062343
 H        -4.847875        -2.358086         2.317632
