19
Iteration:   371charge 0 multiplicity 1
 C         1.300302        -0.667621        -0.046278
 C        -0.079123        -0.200146        -0.042078
 C        -1.178899         0.338168         0.003534
 C        -2.593165         0.607779         0.174468
 O        -2.791404         2.165321         0.246476
 C        -3.282333        -0.075241         1.425367
 C        -4.682135        -0.597505         1.216420
 C        -5.172217        -1.662740         2.137693
 O        -5.442922        -0.199887         0.351486
 H         1.816627        -0.204338         0.819323
 H         1.314409        -1.779401         0.116457
 H         1.773393        -0.539811        -1.060815
 H        -3.038354         0.248966        -0.756937
 H        -2.450197         2.200103         1.213046
 H        -2.523135        -0.781532         1.725857
 H        -3.406794         0.657520         2.256838
 H        -5.189533        -1.350956         3.170524
 H        -6.134405        -2.071253         1.770245
 H        -4.457748        -2.527648         2.249370
