19
Iteration:     8charge 0 multiplicity 1
 C         1.502081         0.208652         0.036706
 C         0.069259         0.037654         0.068639
 C        -1.150356        -0.169282         0.045583
 C        -2.643609        -0.271497         0.079796
 O        -3.267580         0.723441        -0.695638
 C        -3.118296        -0.165998         1.490650
 C        -4.622619        -0.146813         1.547608
 C        -5.438522        -1.192446         0.844213
 O        -5.165476         0.684990         2.241861
 H         1.959992         0.233221         1.055723
 H         1.845170        -0.658169        -0.558553
 H         1.829626         1.022672        -0.600827
 H        -2.988288        -1.274727        -0.183872
 H        -2.632080         1.529591        -0.794324
 H        -2.730870        -1.043370         2.177988
 H        -2.885395         0.712062         2.080027
 H        -4.977767        -2.156989         1.285348
 H        -6.482786        -1.322214         1.242864
 H        -5.480955        -0.993060        -0.244832
