19
Iteration:  4952charge 0 multiplicity 1
 C         0.625126        -0.861924        -1.019871
 C        -0.598501        -0.604307        -0.318135
 C        -1.635981        -0.123864         0.129742
 C        -2.759172         0.852215         0.295944
 O        -2.374586         2.200700         0.296092
 C        -3.450136         0.649704         1.659354
 C        -4.330889        -0.560144         1.503136
 C        -5.393985        -0.658289         2.512655
 O        -4.222933        -1.398233         0.614332
 H         1.518313        -0.719867        -0.447837
 H         0.425281        -1.827185        -1.562527
 H         0.673645        -0.020634        -1.794814
 H        -3.311814         0.575221        -0.574741
 H        -1.810753         2.537310        -0.483339
 H        -2.812203         0.505442         2.506404
 H        -4.072967         1.590846         1.836236
 H        -4.882598        -0.454174         3.493143
 H        -5.826923         0.380941         2.461817
 H        -6.061483        -1.584631         2.376442
