19
Iteration:  4108charge 0 multiplicity 1
 C         0.697852        -1.248040         0.053945
 C        -0.294292        -0.333400         0.490641
 C        -1.241976         0.381056         0.217935
 C        -2.590526         0.802334         0.006089
 O        -2.654070         2.193049        -0.322766
 C        -3.570265         0.679827         1.312690
 C        -4.451710        -0.544034         1.288172
 C        -4.073798        -1.959521         1.592687
 O        -5.689789        -0.217169         1.181146
 H         1.046803        -0.892055        -0.955536
 H         1.627280        -1.410994         0.598207
 H         0.311226        -2.225788        -0.101331
 H        -3.077416         0.168952        -0.696133
 H        -3.129199         2.243251        -1.155872
 H        -3.088600         0.785344         2.300844
 H        -4.223433         1.515383         1.119884
 H        -3.292769        -2.334152         0.958789
 H        -3.718897        -1.919964         2.637684
 H        -4.952683        -2.667463         1.555098
