19
Iteration:   938charge 0 multiplicity 1
 C         1.397614         0.272500         0.393401
 C         0.042234         0.083601         0.009873
 C        -1.166864        -0.000890        -0.077516
 C        -2.686763         0.154316        -0.054363
 O        -2.726536         1.592533         0.562296
 C        -3.345385        -1.035580         0.720735
 C        -4.799651        -0.686453         1.074264
 C        -5.105240        -0.109931         2.574477
 O        -5.541810        -0.666736         0.152924
 H         1.861281         1.230398         0.207874
 H         1.389284         0.218802         1.530779
 H         2.041315        -0.614906         0.053433
 H        -3.026606        -0.013145        -1.072768
 H        -3.221612         1.487776         1.331117
 H        -3.212670        -1.857120         0.026751
 H        -2.561485        -1.092833         1.536174
 H        -4.897096         0.929079         2.581748
 H        -6.030887        -0.396412         2.990696
 H        -4.377458        -0.677415         3.176732
