19
Iteration:  2947
 C         0.687407        -1.178543        -0.503392
 C        -0.611905        -0.559167        -0.257141
 C        -1.466245         0.318557        -0.081643
 C        -2.699749         1.052331         0.149120
 O        -2.418687         2.492046         0.259804
 C        -3.286939         0.435626         1.441212
 C        -4.390229        -0.722925         1.339924
 C        -5.029042        -1.182516         2.761429
 O        -4.888633        -1.058940         0.364009
 H         1.214698        -1.742316         0.251909
 H         0.600884        -1.754968        -1.439548
 H         1.279629        -0.282468        -0.780719
 H        -3.399268         0.930236        -0.627765
 H        -1.521893         2.540399         0.480015
 H        -2.490691         0.158129         2.110687
 H        -3.971560         1.215764         1.888117
 H        -4.872588        -0.312270         3.511070
 H        -6.102128        -1.449220         2.602529
 H        -4.531027        -2.014547         3.331033
