19
Iteration:   703charge 0 multiplicity 1
 C         1.310636        -0.372985        -0.529513
 C        -0.036887        -0.010842        -0.140006
 C        -1.195324         0.271697         0.122111
 C        -2.574471         0.624202         0.484608
 O        -2.698878         1.958490         0.982445
 C        -3.261422        -0.321561         1.547493
 C        -4.770854        -0.816281         1.122796
 C        -5.888804        -0.265266         1.933176
 O        -4.841105        -1.393370         0.034581
 H         2.022723         0.482246        -0.389728
 H         1.789382        -1.150737         0.097903
 H         1.399360        -0.786944        -1.546452
 H        -3.178758         0.379712        -0.431989
 H        -2.159772         2.526600         0.421239
 H        -2.603984        -1.159695         1.383921
 H        -3.290331         0.042603         2.636723
 H        -5.770924         0.658809         2.442102
 H        -6.798132        -0.345481         1.339307
 H        -6.033411        -0.848357         2.812898
