19
Iteration:  2645charge 0 multiplicity 1
 C         0.111425        -1.490130         0.067014
 C        -0.846725        -0.514520        -0.298865
 C        -1.690406         0.344910        -0.077025
 C        -2.808586         1.253768         0.149725
 O        -2.238966         2.675994         0.279477
 C        -3.768782         0.892112         1.478966
 C        -4.224125        -0.651097         1.290742
 C        -4.052263        -1.696369         2.340118
 O        -4.749194        -1.102747         0.203278
 H         0.569191        -1.570268         1.089427
 H        -0.264996        -2.507576        -0.148216
 H         0.931162        -1.369490        -0.658073
 H        -3.501923         1.365966        -0.673412
 H        -1.346438         2.522504         0.574604
 H        -3.117919         1.034932         2.353933
 H        -4.437511         1.720451         1.600184
 H        -3.061699        -2.173195         2.491540
 H        -4.127723        -1.128178         3.364031
 H        -4.749613        -2.536683         2.366867
