19
Iteration:   131
 C         1.513950         0.092707         0.073355
 C         0.067339         0.084238         0.095783
 C        -1.091891        -0.159315        -0.139357
 C        -2.564665        -0.031788         0.021717
 O        -3.008863         1.298708        -0.404493
 C        -3.167294        -0.523699         1.369174
 C        -4.767047        -0.343949         1.463422
 C        -5.579246        -1.597313         1.561278
 O        -5.246770         0.794638         1.538791
 H         1.908116         0.423565         1.037386
 H         1.953924        -0.869762        -0.128412
 H         1.873299         0.902949        -0.538507
 H        -2.981234        -0.656309        -0.807242
 H        -3.235542         1.857729         0.313201
 H        -2.931087        -1.597926         1.309036
 H        -2.631633        -0.018689         2.189934
 H        -5.543084        -2.000999         2.569838
 H        -6.520684        -1.274902         1.173237
 H        -5.025925        -2.301244         0.921465
