19
Iteration:  4353
 C         0.673203        -1.326278        -0.098521
 C        -0.507855        -0.519564         0.256822
 C        -1.450415         0.247257         0.331934
 C        -2.624159         1.008803         0.034626
 O        -2.397143         2.426712        -0.093591
 C        -3.782911         0.820688         1.032469
 C        -4.424339        -0.604289         1.243727
 C        -3.925894        -1.854466         1.903230
 O        -5.641912        -0.523104         1.062046
 H         1.550829        -0.824312        -0.405846
 H         0.980129        -1.909885         0.759879
 H         0.424289        -2.057450        -0.892806
 H        -2.970056         0.675838        -0.932962
 H        -1.492039         2.666746         0.029925
 H        -3.583585         1.198229         2.073192
 H        -4.613673         1.402388         0.653301
 H        -3.087268        -2.362033         1.444177
 H        -3.556697        -1.788174         2.908044
 H        -4.819456        -2.519339         1.950272
