19
Iteration:  1770
 C         0.434034        -1.337875        -0.144680
 C        -0.534036        -0.238560         0.272760
 C        -1.565708         0.415185         0.247935
 C        -2.820846         1.171186         0.264868
 O        -2.460063         2.549755         0.563635
 C        -3.841063         0.642568         1.214174
 C        -4.316954        -0.751553         1.013467
 C        -4.334146        -1.698714         2.245097
 O        -4.658467        -1.025282        -0.109694
 H         1.072814        -0.944254        -0.909283
 H         0.899003        -1.600880         0.772142
 H        -0.183766        -2.096684        -0.578639
 H        -3.118034         1.278094        -0.821266
 H        -1.850044         2.446759         1.410329
 H        -3.619341         0.742897         2.261986
 H        -4.660857         1.299502         1.094855
 H        -3.442870        -2.350030         2.169584
 H        -4.533568        -1.012631         3.097860
 H        -5.185066        -2.387541         2.379031
