19
Iteration:  4998
 C         0.678395        -0.938908        -0.712050
 C        -0.672210        -0.420766        -0.554811
 C        -1.722080         0.115595        -0.301120
 C        -2.854753         0.910438         0.134421
 O        -2.170438         2.233504         0.287649
 C        -3.437783         0.599419         1.605696
 C        -4.340434        -0.658721         1.655481
 C        -5.460720        -0.769314         2.699286
 O        -4.297653        -1.461436         0.684936
 H         1.095448        -0.913657         0.275106
 H         0.665805        -1.929647        -1.165162
 H         1.315268        -0.272066        -1.270847
 H        -3.600664         1.052107        -0.644821
 H        -1.375966         2.072554        -0.304613
 H        -2.457151         0.368921         2.099528
 H        -3.779376         1.527127         2.017411
 H        -4.930802        -0.519267         3.640053
 H        -6.097947         0.093671         2.571267
 H        -5.880348        -1.734062         2.417425
