19
Iteration:  1477charge 0 multiplicity 1
 C         0.876007        -0.802631        -0.132859
 C        -0.477496        -0.289501         0.102665
 C        -1.651148         0.110936         0.215732
 C        -2.791314         1.121879         0.248190
 O        -2.438529         2.450347         0.358936
 C        -3.722959         0.549104         1.448790
 C        -4.392440        -0.776430         1.118786
 C        -5.086892        -1.636426         2.235326
 O        -4.453945        -1.112741        -0.051408
 H         1.417417        -0.422445        -1.040625
 H         1.503759        -0.579564         0.735215
 H         0.822983        -1.887033        -0.144939
 H        -3.249853         1.215233        -0.677301
 H        -2.048026         2.616630         1.315034
 H        -3.162961         0.551827         2.406543
 H        -4.517124         1.312003         1.669293
 H        -4.766415        -1.250432         3.267609
 H        -6.166817        -1.412597         2.231092
 H        -4.855138        -2.692231         1.972962
