19
Iteration:  2413
 C         0.409760        -1.357145         0.259796
 C        -0.532592        -0.230663         0.042002
 C        -1.631658         0.305111        -0.209676
 C        -2.866057         1.125531         0.060768
 O        -2.408569         2.450079         0.179016
 C        -3.653953         0.716960         1.419917
 C        -4.380182        -0.706556         1.273625
 C        -3.834366        -1.864886         2.082691
 O        -5.275627        -0.677748         0.401772
 H         1.044364        -1.340482         1.117421
 H        -0.184606        -2.273635         0.212260
 H         1.099654        -1.341076        -0.588014
 H        -3.533017         1.003242        -0.770656
 H        -1.497569         2.399488         0.574529
 H        -2.918365         0.674010         2.229727
 H        -4.369558         1.500187         1.556442
 H        -3.006250        -1.754989         2.797936
 H        -4.746285        -2.249742         2.553317
 H        -3.366018        -2.627454         1.378648
