19
Iteration:  3323charge 0 multiplicity 1
 C         0.392017        -1.372766        -0.815823
 C        -0.550011        -0.458052        -0.139582
 C        -1.351477         0.439872         0.166482
 C        -2.662010         1.113718         0.245103
 O        -2.405607         2.512236         0.312420
 C        -3.589181         0.690736         1.381793
 C        -4.301845        -0.719039         1.439713
 C        -5.108802        -1.101056         2.710607
 O        -4.425034        -1.394290         0.367868
 H         0.392117        -2.408713        -0.324292
 H         0.178161        -1.489610        -1.899710
 H         1.398205        -0.987678        -0.674368
 H        -3.351683         0.815074        -0.704173
 H        -1.709525         2.752581        -0.402965
 H        -3.195882         0.763412         2.412349
 H        -4.460253         1.397803         1.344013
 H        -4.795285        -1.875357         3.415169
 H        -5.365276        -0.159245         3.202996
 H        -5.987172        -1.641368         2.408083
