19
Iteration:  2469charge 0 multiplicity 1
 C         0.426922        -1.349403        -0.031335
 C        -0.812474        -0.701302         0.135370
 C        -1.634742         0.227254         0.175922
 C        -2.770669         1.108669         0.170954
 O        -2.470702         2.585972         0.251398
 C        -3.752565         0.936191         1.322914
 C        -4.277648        -0.658708         1.151753
 C        -3.731584        -1.660846         2.100898
 O        -5.192207        -0.859080         0.316857
 H         1.023255        -1.227736         0.863830
 H         0.261718        -2.410993        -0.128892
 H         1.002348        -1.094068        -0.904871
 H        -3.296914         0.918311        -0.745491
 H        -1.601941         2.536757         0.550556
 H        -3.351179         1.178345         2.326176
 H        -4.512271         1.598893         1.044507
 H        -4.209583        -1.523882         3.117667
 H        -3.751588        -2.745086         1.822172
 H        -2.620212        -1.488998         2.154809
