19
Iteration:  2439
 C         0.435817        -1.344627         0.159078
 C        -0.712792        -0.539927        -0.024237
 C        -1.647690         0.266285         0.059437
 C        -2.773314         1.165821         0.131561
 O        -2.446630         2.602234         0.192752
 C        -3.662245         0.746232         1.370779
 C        -4.328060        -0.665659         1.175784
 C        -3.827885        -1.720179         2.063370
 O        -5.240409        -0.832262         0.412922
 H         1.037413        -1.126933         1.051070
 H         0.144113        -2.379684         0.142500
 H         1.112891        -1.195536        -0.672409
 H        -3.339433         0.969259        -0.774366
 H        -1.463841         2.652395         0.414432
 H        -3.055834         0.697644         2.271311
 H        -4.472366         1.488669         1.422963
 H        -3.439132        -1.572641         3.066097
 H        -4.645326        -2.430258         2.117714
 H        -2.987835        -2.117784         1.548012
