19
Iteration:  3517
 C         0.261768        -1.551028        -0.280845
 C        -0.657470        -0.468852         0.078993
 C        -1.531482         0.359441        -0.045065
 C        -2.765827         1.155671         0.115512
 O        -2.534149         2.535448         0.118206
 C        -3.409788         0.669456         1.459375
 C        -4.298300        -0.608636         1.340361
 C        -4.359848        -1.401701         2.598649
 O        -4.825095        -0.987074         0.239856
 H        -0.147112        -2.624069        -0.338162
 H         0.877728        -1.249567        -1.168693
 H         1.001459        -1.618880         0.538607
 H        -3.407534         0.925243        -0.771115
 H        -1.841474         2.863657        -0.541061
 H        -2.652314         0.625314         2.238359
 H        -4.114357         1.451597         1.826384
 H        -3.293449        -1.499532         2.969107
 H        -5.056895        -0.865097         3.378337
 H        -4.761840        -2.442200         2.439315
