19
Iteration:  1501
 C         0.820429        -0.808813        -0.162451
 C        -0.569557        -0.332310         0.033255
 C        -1.570615         0.288256         0.294864
 C        -2.825638         0.948277         0.388134
 O        -2.346449         2.400182         0.405051
 C        -3.853792         0.703344         1.371256
 C        -4.377758        -0.703197         1.125616
 C        -4.993716        -1.683638         2.149853
 O        -4.468544        -1.141109         0.018100
 H         1.318782        -0.357306        -1.033659
 H         1.393521        -0.548558         0.722680
 H         0.950443        -1.853236        -0.168773
 H        -3.273170         0.863481        -0.611354
 H        -1.478943         2.339569         0.819291
 H        -3.577392         0.858857         2.418038
 H        -4.610402         1.470467         1.209127
 H        -5.059527        -1.227190         3.150339
 H        -6.068034        -1.848974         1.868779
 H        -4.364925        -2.607665         1.955296
