19
Iteration:  1016charge 0 multiplicity 1
 C         1.495972         0.211044         0.372399
 C         0.020534         0.131464         0.189782
 C        -1.164978         0.015333        -0.018448
 C        -2.583598         0.199987         0.057438
 O        -3.048474         1.519283         0.351101
 C        -3.275637        -1.062320         0.808754
 C        -4.712033        -0.484348         1.065305
 C        -5.035273        -0.391313         2.571039
 O        -5.534481        -0.461858         0.186417
 H         2.083101         0.995209        -0.118095
 H         1.648530         0.215007         1.480613
 H         1.955637        -0.789486         0.090373
 H        -2.825678        -0.023550        -0.975077
 H        -3.534277         1.771203        -0.523163
 H        -3.366471        -1.867357         0.107099
 H        -2.572552        -1.268707         1.663110
 H        -4.387574         0.235652         3.083951
 H        -6.058851        -0.030114         2.607299
 H        -4.858078        -1.425260         2.936420
