19
Iteration:  3360charge 0 multiplicity 1
 C         0.507891        -1.371415        -0.589383
 C        -0.641093        -0.458495        -0.441716
 C        -1.563626         0.210010         0.038358
 C        -2.671375         1.134516         0.227507
 O        -2.401651         2.552262         0.468333
 C        -3.658836         0.772658         1.314063
 C        -4.401159        -0.585434         1.296375
 C        -4.891189        -1.132859         2.769600
 O        -4.456800        -1.443642         0.380601
 H         0.177257        -2.234342        -0.054138
 H         0.758973        -1.754124        -1.568217
 H         1.461819        -1.005445        -0.159384
 H        -3.258965         1.084196        -0.733211
 H        -1.440031         2.740979         0.156523
 H        -3.155910         0.747386         2.311749
 H        -4.301541         1.586625         1.290294
 H        -3.992374        -1.559856         3.260505
 H        -5.110217        -0.249468         3.412545
 H        -5.829643        -1.749890         2.633992
