19
Iteration:   992charge 0 multiplicity 1
 C         1.494478         0.228113         0.445192
 C         0.065085         0.082399         0.184412
 C        -1.145181         0.122334        -0.061119
 C        -2.617519         0.162746        -0.201824
 O        -2.997623         1.358367         0.466410
 C        -3.347992        -0.951804         0.755320
 C        -4.763247        -0.653780         1.103235
 C        -5.048783        -0.329158         2.609292
 O        -5.569146        -0.454872         0.204489
 H         1.722910         1.108745        -0.132733
 H         1.796424         0.379894         1.506449
 H         2.154527        -0.575670        -0.002087
 H        -2.929874         0.055548        -1.244317
 H        -2.461190         1.985594         0.027014
 H        -3.232005        -1.971409         0.345338
 H        -2.643095        -0.781165         1.613625
 H        -4.534060         0.649051         2.734622
 H        -6.055123        -0.019917         2.539311
 H        -4.702970        -1.063295         3.371449
