19
Iteration:  3410
 C         0.353830        -1.172659        -0.296871
 C        -0.839207        -0.460503        -0.146551
 C        -1.884124         0.063607        -0.369258
 C        -2.827888         1.148309         0.054177
 O        -2.095562         2.340809         0.515541
 C        -3.647930         0.726271         1.375423
 C        -4.259780        -0.637403         1.311861
 C        -4.674687        -1.157641         2.711353
 O        -4.449064        -1.254142         0.315021
 H         0.356804        -2.292960        -0.120929
 H         0.700651        -1.136060        -1.362236
 H         1.169787        -0.613021         0.191452
 H        -3.526466         1.411337        -0.745547
 H        -1.523780         2.714189        -0.188327
 H        -2.870763         0.653975         2.162201
 H        -4.372164         1.608684         1.581699
 H        -3.730103        -1.258799         3.230384
 H        -5.164604        -0.372706         3.274427
 H        -5.225314        -2.057059         2.517319
