19
Iteration:  1234charge 0 multiplicity 1
 C         1.403529        -0.299511        -0.186657
 C         0.020821        -0.061929         0.153157
 C        -1.161573         0.168423         0.303865
 C        -2.619680         0.469050         0.195599
 O        -2.751606         1.975717         0.219033
 C        -3.449248         0.098276         1.395511
 C        -4.777728        -0.614060         1.179931
 C        -5.546014        -1.269154         2.400867
 O        -5.132272        -0.805447         0.014826
 H         1.738645         0.193508        -1.084018
 H         2.136237         0.009718         0.558304
 H         1.638032        -1.359695        -0.407379
 H        -2.937332         0.150638        -0.869836
 H        -1.967321         2.397886        -0.100718
 H        -2.761598        -0.371847         2.104764
 H        -3.563851         1.103852         1.909638
 H        -6.594154        -1.193556         2.653758
 H        -5.247415        -2.377057         2.293181
 H        -5.029021        -0.997878         3.396098
