19
Iteration:  3051
 C         0.670839        -1.145355        -0.790656
 C        -0.565097        -0.641501        -0.102414
 C        -1.434772         0.191234         0.097693
 C        -2.642004         1.031215         0.321263
 O        -2.622999         2.401670         0.069112
 C        -3.307638         0.465163         1.665917
 C        -4.471815        -0.505041         1.429939
 C        -5.145924        -1.036486         2.657708
 O        -4.567308        -1.133292         0.316643
 H         1.346989        -1.873380        -0.326181
 H         0.488194        -1.310092        -1.839716
 H         1.196660        -0.193512        -0.865453
 H        -3.442527         0.603645        -0.412148
 H        -1.750356         2.828025         0.337444
 H        -2.613122        -0.303551         2.209675
 H        -3.560489         1.297592         2.275162
 H        -4.951286        -0.426128         3.516747
 H        -6.239294        -0.955382         2.516421
 H        -4.937941        -2.097627         2.570963
