19
Iteration:  3011
 C         0.638640        -1.318834        -0.711206
 C        -0.365147        -0.308589        -0.321090
 C        -1.339708         0.352133         0.083414
 C        -2.677632         0.877612         0.327792
 O        -2.649730         2.297972         0.126833
 C        -3.372195         0.500095         1.609085
 C        -4.347641        -0.610689         1.487125
 C        -5.196461        -1.108795         2.678231
 O        -4.664238        -0.995530         0.305683
 H         0.911447        -2.129196         0.014501
 H         0.332696        -1.743597        -1.706598
 H         1.584625        -0.797806        -1.151994
 H        -3.214262         0.532929        -0.548364
 H        -1.973753         2.684053         0.684314
 H        -2.680047         0.466635         2.408474
 H        -4.047545         1.321481         2.058991
 H        -5.007155        -0.520165         3.616296
 H        -6.244210        -0.917040         2.407527
 H        -4.977427        -2.150873         2.960111
