19
Iteration:  4387
 C         0.454395        -1.469401        -0.075730
 C        -0.588937        -0.522824         0.506937
 C        -1.450586         0.280075         0.206839
 C        -2.658848         1.022858        -0.061969
 O        -2.451762         2.459107        -0.014773
 C        -3.665288         0.814133         1.178158
 C        -4.487155        -0.560390         1.193271
 C        -3.642581        -1.682572         1.877661
 O        -5.627046        -0.662491         0.913800
 H         1.381951        -0.991229        -0.428947
 H         0.607312        -2.229057         0.669242
 H        -0.037255        -2.009049        -0.880339
 H        -3.288773         0.656817        -0.882716
 H        -1.485879         2.604725        -0.181710
 H        -2.992196         0.997518         2.092985
 H        -4.371856         1.634449         1.034928
 H        -2.839624        -1.932157         1.147373
 H        -3.230617        -1.303856         2.803523
 H        -4.319723        -2.555354         1.874464
