19
Iteration:   197charge 0 multiplicity 1
 C         1.620763        -0.147794         0.049198
 C         0.100249        -0.096552         0.073393
 C        -1.135831         0.057720         0.002872
 C        -2.608133         0.149176        -0.001046
 O        -3.010611         1.574095        -0.311858
 C        -3.175967        -0.386267         1.370893
 C        -4.752765        -0.419959         1.410110
 C        -5.456340        -1.674786         1.719506
 O        -5.379396         0.603722         1.240293
 H         1.944382         0.299821         0.989305
 H         2.090274        -1.125879        -0.037988
 H         1.969238         0.608788        -0.669548
 H        -3.221933        -0.466409        -0.767765
 H        -3.509821         1.867236         0.455059
 H        -2.773130        -1.384517         1.378947
 H        -2.859456         0.145636         2.329324
 H        -5.284882        -2.048259         2.780250
 H        -6.523042        -1.778248         1.574809
 H        -4.987301        -2.525789         1.135726
