19
Iteration:   450charge 0 multiplicity 1
 C         1.195706        -0.706201        -0.215582
 C        -0.133108        -0.108641        -0.127684
 C        -1.269765         0.264486         0.092912
 C        -2.605442         0.757087         0.239338
 O        -2.716205         2.216800         0.567436
 C        -3.361207        -0.095860         1.436129
 C        -4.681475        -0.673110         1.119335
 C        -5.350186        -1.361775         2.364576
 O        -5.040944        -0.618384        -0.044500
 H         1.941299        -0.210966         0.431956
 H         1.149247        -1.791008         0.079886
 H         1.626225        -0.709468        -1.282802
 H        -3.046896         0.653482        -0.757458
 H        -2.639628         2.248364         1.484542
 H        -2.648334        -0.777610         1.830359
 H        -3.352242         0.642989         2.308655
 H        -5.589278        -0.545566         3.064219
 H        -6.377566        -1.658869         2.122662
 H        -4.761548        -2.145421         2.937379
