19
Iteration:  4358
 C         0.613875        -1.327229        -0.101099
 C        -0.528890        -0.509068         0.302129
 C        -1.460567         0.248300         0.335205
 C        -2.574813         1.031421         0.010409
 O        -2.414680         2.420172        -0.082617
 C        -3.802197         0.780270         1.002355
 C        -4.361716        -0.620752         1.271014
 C        -3.913031        -1.867197         1.915750
 O        -5.639553        -0.500416         1.036193
 H         1.545171        -0.700689        -0.451502
 H         0.896422        -2.007265         0.751387
 H         0.312156        -2.030016        -0.881601
 H        -3.101051         0.618020        -0.923967
 H        -1.411511         2.613078         0.036467
 H        -3.470627         1.171207         1.997736
 H        -4.637121         1.490189         0.747110
 H        -3.028936        -2.339528         1.390727
 H        -3.439418        -1.638470         2.929055
 H        -4.770786        -2.517016         1.852883
