19
Iteration:  1923charge 0 multiplicity 1
 C         0.456534        -1.217005         0.213421
 C        -0.817061        -0.591647         0.125942
 C        -1.742658         0.221961         0.113183
 C        -2.777149         1.162647         0.214164
 O        -2.360990         2.533917         0.591349
 C        -3.908365         0.773621         1.245375
 C        -4.269405        -0.676729         0.987463
 C        -3.841767        -1.700399         2.033984
 O        -5.013593        -0.903254         0.032958
 H         1.171608        -0.429643        -0.067754
 H         0.687795        -1.502683         1.236327
 H         0.677775        -1.915983        -0.590185
 H        -3.186544         1.257883        -0.787645
 H        -1.388912         2.796387         0.345572
 H        -3.452722         0.887159         2.215282
 H        -4.816415         1.300308         1.043257
 H        -4.616917        -1.886309         2.812991
 H        -3.606392        -2.707794         1.471083
 H        -2.966127        -1.371524         2.639331
