19
Iteration:  2218
 C         0.850478        -1.127827         0.007087
 C        -0.392613        -0.457857         0.233847
 C        -1.465149         0.140339         0.246319
 C        -2.623471         0.979302         0.180975
 O        -2.353752         2.372123         0.282558
 C        -3.953922         0.756162         1.059658
 C        -4.565728        -0.570018         1.116239
 C        -3.934999        -1.726876         1.798150
 O        -5.644163        -0.722256         0.657704
 H         1.630957        -0.590632         0.615720
 H         1.017860        -2.184813         0.253069
 H         0.949186        -1.145281        -1.084900
 H        -3.151036         0.848755        -0.754968
 H        -1.890959         2.672690         1.051466
 H        -3.693361         0.965521         2.147628
 H        -4.736599         1.495066         0.799563
 H        -4.598503        -1.995436         2.584092
 H        -3.930263        -2.536863         1.118605
 H        -2.905022        -1.653585         2.043362
