19
Iteration:  3109charge 0 multiplicity 1
 C         0.758064        -1.099944        -0.570982
 C        -0.492951        -0.262455        -0.589632
 C        -1.571519         0.113594        -0.189268
 C        -2.741453         0.948187         0.237097
 O        -2.201858         2.346568         0.327673
 C        -3.553338         0.620736         1.502929
 C        -4.468284        -0.670903         1.519400
 C        -5.212326        -1.032257         2.761314
 O        -4.684077        -1.296205         0.434947
 H         0.851791        -1.883581         0.196957
 H         0.772897        -1.627298        -1.554420
 H         1.687373        -0.448714        -0.626217
 H        -3.491199         0.964791        -0.628749
 H        -1.317771         2.274215         0.725925
 H        -2.880666         0.641632         2.380632
 H        -4.173457         1.524196         1.751895
 H        -4.805326        -0.664658         3.691990
 H        -6.201257        -0.725478         2.480788
 H        -5.144576        -2.095986         2.834000
