19
Iteration:  2246
 C         0.842667        -1.115830        -0.034881
 C        -0.437349        -0.559739         0.270147
 C        -1.467985         0.156531         0.426736
 C        -2.616152         1.007398         0.163255
 O        -2.415530         2.432597         0.125901
 C        -3.813109         0.816099         1.266022
 C        -4.617627        -0.655790         1.181862
 C        -3.910395        -1.831853         1.794859
 O        -5.684162        -0.668761         0.511470
 H         1.624029        -0.611746         0.479070
 H         1.087802        -2.193132         0.042602
 H         0.810060        -0.968633        -1.137335
 H        -3.157430         0.756601        -0.802177
 H        -1.759100         2.690722         0.693415
 H        -3.362408         1.115832         2.205124
 H        -4.587857         1.575046         1.057639
 H        -4.701617        -2.492541         2.305292
 H        -3.196714        -2.395710         1.055935
 H        -3.228945        -1.308004         2.609004
