19
Iteration:  4501
 C         0.079185        -1.405828         0.277538
 C        -0.968897        -0.476867         0.105412
 C        -1.829699         0.286772        -0.275718
 C        -2.792915         1.245437        -0.018088
 O        -2.293930         2.519673         0.127354
 C        -3.374350         0.693853         1.269766
 C        -4.202096        -0.684397         1.214831
 C        -3.723030        -1.673879         2.189899
 O        -5.199927        -0.844720         0.590575
 H         1.062141        -0.850222         0.379333
 H         0.054257        -2.098243         1.160099
 H         0.233062        -2.073067        -0.629081
 H        -3.478435         1.282700        -0.872299
 H        -1.401379         2.798375        -0.276537
 H        -2.594334         0.702420         2.052798
 H        -4.104758         1.523101         1.618452
 H        -2.683896        -1.981574         1.915738
 H        -3.406861        -1.124546         3.116384
 H        -4.332821        -2.604815         2.391719
