19
Iteration:  2957
 C         0.665700        -1.234152        -0.581854
 C        -0.521700        -0.397410        -0.276325
 C        -1.444049         0.331403        -0.031178
 C        -2.723406         1.006514         0.135055
 O        -2.453195         2.414215         0.255889
 C        -3.360404         0.404386         1.520971
 C        -4.403594        -0.636364         1.435528
 C        -4.983560        -1.128183         2.748441
 O        -4.870155        -1.095350         0.299640
 H         0.932990        -1.804275         0.333199
 H         0.646027        -2.001992        -1.387335
 H         1.534095        -0.498973        -0.752550
 H        -3.286441         0.882384        -0.742572
 H        -1.592151         2.513256         0.593873
 H        -2.555295         0.155574         2.189848
 H        -3.954781         1.283808         2.019477
 H        -4.962579        -0.229170         3.460992
 H        -6.060514        -1.261348         2.488379
 H        -4.546935        -2.115721         3.002867
