19
Iteration:   270charge 0 multiplicity 1
 C         1.471262        -0.406221         0.003175
 C         0.012886        -0.141357         0.041798
 C        -1.192431         0.104863         0.112143
 C        -2.647760         0.392253         0.108971
 O        -2.838252         1.838345        -0.160998
 C        -3.200604        -0.109139         1.479967
 C        -4.751980        -0.463912         1.366324
 C        -5.223838        -1.858634         1.851606
 O        -5.493992         0.349264         0.820406
 H         2.000103         0.062903         0.900357
 H         1.606711        -1.508231         0.059922
 H         1.939858         0.149173        -0.817133
 H        -3.192473        -0.163018        -0.651810
 H        -3.536898         2.034474         0.447011
 H        -2.649690        -1.148676         1.467701
 H        -2.772454         0.504719         2.226290
 H        -4.564234        -2.447813         2.566118
 H        -6.232543        -1.986129         2.243605
 H        -5.188079        -2.493183         0.956151
