19
Iteration:  2664charge 0 multiplicity 1
 C         0.173099        -1.508720        -0.009521
 C        -0.944036        -0.578655        -0.132470
 C        -1.803409         0.324584        -0.065656
 C        -2.850428         1.302109         0.170192
 O        -2.359111         2.595580         0.315142
 C        -3.586465         0.745390         1.369190
 C        -4.104040        -0.623997         1.255187
 C        -4.075807        -1.597841         2.410863
 O        -4.703507        -0.926356         0.164089
 H         0.442113        -1.436316         1.090949
 H        -0.171223        -2.581952        -0.133245
 H         1.109782        -1.337572        -0.632018
 H        -3.581460         1.219729        -0.723028
 H        -1.444376         2.505357         0.391120
 H        -2.815316         0.807233         2.237541
 H        -4.497306         1.323926         1.558391
 H        -3.008326        -1.765598         2.633413
 H        -4.585923        -1.425161         3.318795
 H        -4.426621        -2.571394         2.113564
