19
Iteration:  3637
 C         0.423176        -1.219258        -0.121203
 C        -0.948009        -0.792582        -0.071852
 C        -1.755343         0.118328         0.015762
 C        -2.868397         1.114347         0.060644
 O        -2.196060         2.452691         0.010444
 C        -3.666084         0.885652         1.420148
 C        -4.303774        -0.501089         1.419862
 C        -4.064235        -1.488430         2.463665
 O        -4.942334        -0.948522         0.389520
 H         0.593024        -2.149981        -0.716866
 H         1.044322        -0.495946        -0.660112
 H         0.900767        -1.366007         0.816646
 H        -3.635957         0.933351        -0.807254
 H        -1.529456         2.317375         0.654604
 H        -3.017782         1.049432         2.256378
 H        -4.422543         1.652704         1.478826
 H        -3.037323        -1.743071         2.148873
 H        -4.122514        -1.098230         3.540343
 H        -4.648709        -2.386024         2.147229
