19
Iteration:  1713
 C         0.438037        -1.223578         0.061214
 C        -0.818178        -0.548109         0.023682
 C        -1.596126         0.442831         0.164499
 C        -2.857339         1.214591         0.282258
 O        -2.543851         2.694728         0.422446
 C        -3.692778         0.645285         1.546244
 C        -4.197903        -0.798230         1.036403
 C        -4.504281        -1.864177         2.128725
 O        -4.402877        -0.875500        -0.132239
 H         1.169039        -0.908660        -0.600364
 H         0.829054        -1.206020         1.084804
 H         0.153928        -2.304109        -0.053662
 H        -3.306449         1.162997        -0.731636
 H        -1.655923         2.570106         0.591763
 H        -3.287695         0.461304         2.527429
 H        -4.533344         1.315662         1.696049
 H        -4.309186        -2.998774         2.066557
 H        -3.826089        -1.744060         3.007998
 H        -5.604907        -1.676471         2.344679
