19
Iteration:   998
 C         1.477809         0.204568         0.437966
 C         0.074718         0.099737         0.189270
 C        -1.115758         0.121876        -0.034008
 C        -2.604431         0.106488        -0.176336
 O        -3.013240         1.398433         0.446462
 C        -3.299706        -0.915545         0.776429
 C        -4.785985        -0.658629         1.109380
 C        -5.071119        -0.333230         2.586464
 O        -5.539277        -0.447614         0.202079
 H         1.705796         1.111471        -0.197473
 H         1.748517         0.374984         1.470616
 H         2.065078        -0.568490        -0.010896
 H        -3.170095         0.045742        -1.150446
 H        -2.718115         2.091424        -0.258543
 H        -3.340105        -1.832036         0.131607
 H        -2.721013        -1.150739         1.685227
 H        -4.313135         0.486304         2.807970
 H        -6.158633        -0.008829         2.751209
 H        -4.669988        -1.109627         3.233020
