19
Iteration:  2107charge 0 multiplicity 1
 C         0.529743        -1.219651         0.391698
 C        -0.710970        -0.472462         0.176603
 C        -1.678323         0.220555         0.081614
 C        -2.811301         1.146539         0.118931
 O        -2.317202         2.460068         0.292714
 C        -3.801318         0.757300         1.311371
 C        -4.412796        -0.599749         1.064867
 C        -3.554574        -1.914807         1.598722
 O        -5.463991        -0.707741         0.519030
 H         1.407932        -0.588622         0.697311
 H         0.371935        -2.015028         1.169813
 H         0.741524        -1.757051        -0.573972
 H        -3.510629         1.158905        -0.806736
 H        -1.293761         2.550239         0.179651
 H        -3.377245         0.718340         2.367357
 H        -4.578303         1.554061         1.324071
 H        -2.529941        -1.768881         1.443668
 H        -3.876392        -1.848330         2.606120
 H        -3.883058        -2.854929         1.196511
