19
Iteration:  4462charge 0 multiplicity 1
 C         0.284968        -1.530033         0.337956
 C        -0.873238        -0.626170        -0.008746
 C        -1.739056         0.204651        -0.101592
 C        -2.827995         1.185391        -0.009920
 O        -2.371499         2.475760         0.173580
 C        -3.657751         0.935198         1.316762
 C        -4.247422        -0.556039         1.268347
 C        -3.485516        -1.679482         1.917126
 O        -5.272163        -0.744879         0.672341
 H         1.200494        -1.004477         0.348397
 H         0.028158        -1.952732         1.306543
 H         0.331749        -2.353332        -0.393814
 H        -3.644821         1.019185        -0.756242
 H        -1.990279         2.728302        -0.680975
 H        -2.946165         1.111482         2.126523
 H        -4.530280         1.534840         1.353473
 H        -2.644587        -1.870737         1.254519
 H        -3.200994        -1.281254         2.881319
 H        -4.045607        -2.630357         1.906028
