19
Iteration:  4752charge 0 multiplicity 1
 C         0.508475        -1.081777        -0.409857
 C        -0.696484        -0.330041        -0.637707
 C        -1.801966         0.150700        -0.359907
 C        -2.818229         1.039023         0.211397
 O        -2.219611         2.311896         0.330691
 C        -3.311811         0.494564         1.637065
 C        -4.345507        -0.660255         1.397204
 C        -5.140901        -0.850390         2.761903
 O        -4.383814        -1.371470         0.442749
 H         1.088545        -0.665656         0.400441
 H         0.214443        -2.069876        -0.081905
 H         1.045172        -1.225224        -1.339793
 H        -3.593976         1.023835        -0.535980
 H        -1.398845         2.229617        -0.100684
 H        -2.510060        -0.097973         2.050192
 H        -3.762358         1.207742         2.352736
 H        -4.599702        -1.053057         3.667146
 H        -5.787982         0.107364         2.891650
 H        -6.013629        -1.478847         2.620451
