19
Iteration:  3709
 C         0.411462        -1.243129         0.156939
 C        -0.803504        -0.471187        -0.176229
 C        -1.835918         0.107047        -0.425713
 C        -2.884134         1.048330        -0.042069
 O        -2.099820         2.327917         0.188469
 C        -3.599685         0.809747         1.336456
 C        -4.390628        -0.502248         1.366971
 C        -3.847712        -1.500565         2.402825
 O        -5.289112        -0.898319         0.586134
 H         0.657364        -2.092728        -0.445707
 H         1.372148        -0.667672         0.104476
 H         0.396379        -1.623062         1.257379
 H        -3.565233         1.190079        -0.801320
 H        -1.244148         2.153902        -0.122095
 H        -2.872890         0.837805         2.196175
 H        -4.364677         1.601497         1.520603
 H        -2.769225        -1.282210         2.518064
 H        -4.321403        -1.248348         3.325277
 H        -3.958659        -2.533315         2.125533
