19
Iteration:  4996
 C         0.669071        -0.926404        -0.714731
 C        -0.668353        -0.447013        -0.539057
 C        -1.728032         0.106161        -0.286921
 C        -2.832232         0.902797         0.125051
 O        -2.177940         2.237375         0.287075
 C        -3.447757         0.600722         1.608853
 C        -4.342754        -0.657373         1.667076
 C        -5.455228        -0.770991         2.686926
 O        -4.288230        -1.449730         0.682799
 H         1.181897        -0.900352         0.241735
 H         0.684780        -1.938628        -1.240026
 H         1.314028        -0.208222        -1.353509
 H        -3.637257         1.077114        -0.576403
 H        -1.387320         2.045264        -0.332993
 H        -2.493035         0.343403         2.014909
 H        -3.822973         1.544464         2.101619
 H        -4.914305        -0.490026         3.614645
 H        -6.107222         0.119838         2.570124
 H        -5.946044        -1.738801         2.396440
