19
Iteration:  1421
 C         0.874872        -0.932735         0.064047
 C        -0.344385        -0.163418        -0.049510
 C        -1.386319         0.420177         0.031277
 C        -2.743376         1.015882         0.164011
 O        -2.791247         2.549913         0.568093
 C        -3.417798         0.197905         1.386454
 C        -4.369706        -0.876753         1.070501
 C        -5.222745        -1.341914         2.331212
 O        -4.602467        -1.217455        -0.047308
 H         1.385158        -0.646076        -0.863696
 H         1.492746        -0.635226         0.920911
 H         0.597475        -1.999198        -0.079615
 H        -3.254460         1.077443        -0.743544
 H        -1.844212         2.761585         0.537279
 H        -2.713978        -0.103037         2.183515
 H        -4.096265         0.994633         1.802989
 H        -4.664104        -1.985759         3.073186
 H        -5.698028        -0.393093         2.556991
 H        -5.858116        -2.041182         1.805377
