19
Iteration:  4286charge 0 multiplicity 1
 C         0.931783        -0.987577         0.089261
 C        -0.410936        -0.428817         0.054583
 C        -1.601866        -0.133949         0.007080
 C        -2.768435         0.771984         0.010361
 O        -2.337873         2.081281         0.016273
 C        -3.741993         0.744595         1.263735
 C        -4.598493        -0.379125         1.257626
 C        -3.866958        -1.710144         1.709020
 O        -5.802722        -0.332514         1.110323
 H         1.699405        -0.410678        -0.305310
 H         1.134886        -1.184747         1.148028
 H         0.902419        -1.985328        -0.436736
 H        -3.380604         0.618395        -0.799150
 H        -1.416446         2.027918         0.364981
 H        -3.069560         0.859779         2.100475
 H        -4.353060         1.667144         1.213459
 H        -2.912361        -1.801127         1.187887
 H        -3.482495        -1.528201         2.754507
 H        -4.504787        -2.572274         1.574020
