19
Iteration:  3235
 C         0.638579        -1.214738        -0.683958
 C        -0.623636        -0.572402        -0.524812
 C        -1.466062         0.264792        -0.105126
 C        -2.648805         1.071431         0.308303
 O        -2.422564         2.484897         0.304519
 C        -3.385870         0.682752         1.651136
 C        -4.260143        -0.664487         1.498547
 C        -5.408598        -1.103663         2.590011
 O        -4.453856        -1.294274         0.518889
 H         0.738218        -2.110667         0.012078
 H         0.597790        -1.709757        -1.664358
 H         1.520412        -0.600401        -0.552975
 H        -3.466024         0.734828        -0.324847
 H        -1.984046         2.727653        -0.606995
 H        -2.756809         0.584973         2.526965
 H        -4.021536         1.533200         1.928834
 H        -4.857789        -1.492861         3.451476
 H        -6.175747        -0.331042         2.813929
 H        -5.964262        -1.776834         1.950202
