19
Iteration:  4005
 C         0.679805        -1.089682         0.313558
 C        -0.643626        -0.538619         0.193442
 C        -1.755446        -0.094032        -0.054297
 C        -2.810647         0.928044        -0.133785
 O        -2.287193         2.203526        -0.019031
 C        -3.625829         0.851334         1.211756
 C        -4.356545        -0.460898         1.318924
 C        -3.714365        -1.785108         1.571259
 O        -5.626162        -0.413151         1.189084
 H         1.192431        -1.075747        -0.663177
 H         1.409124        -0.577074         0.988042
 H         0.785722        -2.182862         0.631443
 H        -3.501959         0.724858        -1.001477
 H        -3.043722         2.799911        -0.399506
 H        -2.868886         0.971415         1.990449
 H        -4.435594         1.617109         1.312094
 H        -2.957938        -2.107661         0.680414
 H        -3.073457        -1.777816         2.532453
 H        -4.472586        -2.576115         1.693776
