19
Iteration:  4671
 C         0.435085        -1.383767        -0.733261
 C        -0.587050        -0.425832        -0.272730
 C        -1.494579         0.165806         0.245396
 C        -2.648892         1.011641         0.338424
 O        -2.401099         2.386749         0.296487
 C        -3.826905         0.853721         1.374508
 C        -4.385607        -0.583533         1.366459
 C        -4.695920        -1.091380         2.720198
 O        -4.548032        -1.246840         0.321176
 H         1.455959        -1.045593        -0.316551
 H         0.265719        -2.412588        -0.344953
 H         0.642091        -1.452784        -1.816531
 H        -3.069202         0.624511        -0.533406
 H        -1.747118         2.414785        -0.431473
 H        -3.389497         1.102889         2.343536
 H        -4.520548         1.639845         1.219341
 H        -3.768450        -1.101887         3.366365
 H        -5.366350        -0.297612         3.057438
 H        -5.130363        -2.096125         2.623253
