19
Iteration:   619
 C         1.218993        -0.449460        -0.658262
 C        -0.100993        -0.051325        -0.113956
 C        -1.214237         0.276419         0.227933
 C        -2.609785         0.621059         0.555471
 O        -2.622984         2.009091         0.873772
 C        -3.335297        -0.176766         1.638298
 C        -4.705064        -0.728332         1.071684
 C        -5.909908        -0.529804         2.007157
 O        -4.698797        -1.318475        -0.035671
 H         1.992906         0.337198        -0.475704
 H         1.508311        -1.421310        -0.210769
 H         1.160205        -0.522880        -1.743290
 H        -3.112300         0.533070        -0.433053
 H        -1.705690         2.330505         1.226422
 H        -2.684540        -1.023056         1.991499
 H        -3.504282         0.398067         2.549148
 H        -6.356697         0.419895         1.481268
 H        -6.825030        -1.162266         1.892686
 H        -5.710395        -0.328782         3.091686
