19
Iteration:  1173charge 0 multiplicity 1
 C         1.483972        -0.045389         0.068681
 C         0.040052        -0.057884         0.047453
 C        -1.199181         0.030507         0.066979
 C        -2.682818         0.379052         0.068404
 O        -2.735123         1.864332         0.065736
 C        -3.337420        -0.175426         1.285299
 C        -4.743953        -0.594689         1.246698
 C        -5.570501        -1.196194         2.522753
 O        -5.192078        -0.583670         0.137367
 H         2.010039         0.663551        -0.667513
 H         1.706844         0.314847         1.087635
 H         1.766131        -1.087246         0.040385
 H        -3.244962         0.052142        -0.796918
 H        -2.511791         2.005190         1.018999
 H        -2.653271        -1.070061         1.431628
 H        -3.008158         0.414074         2.134896
 H        -6.124395        -0.274823         2.908040
 H        -6.318883        -1.843882         2.131292
 H        -4.952094        -1.569784         3.274219
