19
Iteration:  4361charge 0 multiplicity 1
 C         0.575256        -1.327623        -0.092487
 C        -0.526659        -0.508346         0.330958
 C        -1.464680         0.249094         0.335294
 C        -2.571159         1.046468         0.001841
 O        -2.418657         2.421732        -0.073663
 C        -3.800314         0.753184         0.994322
 C        -4.367122        -0.601261         1.279643
 C        -3.878365        -1.879414         1.923880
 O        -5.616369        -0.495867         1.019485
 H         1.351651        -0.699580        -0.417819
 H         0.864379        -2.034251         0.702008
 H         0.213484        -1.996789        -0.928032
 H        -3.132358         0.582257        -1.020065
 H        -1.455710         2.550102         0.025528
 H        -3.351997         1.115524         1.877207
 H        -4.598494         1.454286         0.797132
 H        -3.056532        -2.279149         1.336664
 H        -3.445063        -1.530366         2.907865
 H        -4.731969        -2.556070         1.841773
