19
Iteration:  1922charge 0 multiplicity 1
 C         0.466313        -1.212672         0.211517
 C        -0.828504        -0.595109         0.124995
 C        -1.747666         0.226577         0.118084
 C        -2.782782         1.155964         0.217110
 O        -2.353618         2.533164         0.592370
 C        -3.908278         0.775869         1.244472
 C        -4.265201        -0.672017         0.974568
 C        -3.841427        -1.699992         2.038161
 O        -5.018474        -0.904621         0.027209
 H         1.182336        -0.434287        -0.071726
 H         0.698650        -1.484218         1.251676
 H         0.674369        -1.918223        -0.627175
 H        -3.183614         1.268911        -0.763487
 H        -1.357794         2.790649         0.360144
 H        -3.441605         0.878125         2.219056
 H        -4.860089         1.256264         1.036475
 H        -4.585699        -1.836892         2.835482
 H        -3.584070        -2.716490         1.559939
 H        -2.987444        -1.415900         2.648058
