19
Iteration:  3028charge 0 multiplicity 1
 C         0.633805        -1.186950        -0.784833
 C        -0.534107        -0.556238        -0.221332
 C        -1.291129         0.334230         0.185196
 C        -2.619788         0.959651         0.278054
 O        -2.659339         2.413354         0.049724
 C        -3.254189         0.498008         1.659339
 C        -4.335330        -0.664446         1.449135
 C        -5.224165        -1.101967         2.632326
 O        -4.692424        -1.052476         0.381119
 H         0.912895        -1.924421        -0.034585
 H         0.461041        -1.677114        -1.727337
 H         1.458591        -0.525169        -0.930694
 H        -3.333997         0.472500        -0.476009
 H        -1.895124         2.753393         0.469485
 H        -2.525305         0.153034         2.482861
 H        -3.788380         1.370652         1.980605
 H        -5.105891        -0.461482         3.482512
 H        -6.263681        -0.953064         2.295845
 H        -5.055782        -2.190201         2.696453
