19
Iteration:  2071charge 0 multiplicity 1
 C         0.412755        -1.384745         0.372519
 C        -0.617282        -0.358951         0.227346
 C        -1.634037         0.306315         0.199154
 C        -2.747178         1.113013         0.162242
 O        -2.543585         2.508380         0.192601
 C        -3.676987         0.776003         1.464625
 C        -4.406540        -0.626355         1.156460
 C        -3.613237        -1.862775         1.565757
 O        -5.362508        -0.734214         0.345217
 H         1.429515        -1.115969         0.542066
 H         0.011194        -2.027781         1.169001
 H         0.517827        -2.032598        -0.519848
 H        -3.347112         1.017272        -0.767642
 H        -1.607483         2.790440        -0.064866
 H        -3.031496         0.681219         2.363420
 H        -4.312930         1.684324         1.452822
 H        -2.737154        -2.172790         0.855458
 H        -2.958327        -1.868774         2.509992
 H        -4.380626        -2.686899         1.593896
