19
Iteration:  3723charge 0 multiplicity 1
 C         0.492016        -1.338266         0.145357
 C        -0.766333        -0.570068        -0.135590
 C        -1.755645         0.107337        -0.406859
 C        -2.773009         1.191645         0.020846
 O        -2.174120         2.454170         0.135673
 C        -3.702084         0.786979         1.279234
 C        -4.387167        -0.633204         1.352396
 C        -3.844301        -1.544274         2.406025
 O        -5.314442        -0.837014         0.669621
 H         0.642211        -2.214999        -0.500658
 H         1.288958        -0.588693         0.089615
 H         0.355786        -1.718933         1.146559
 H        -3.556679         1.324413        -0.740508
 H        -1.486440         2.498801        -0.628770
 H        -3.141425         1.006343         2.168398
 H        -4.486885         1.545108         1.180453
 H        -2.801310        -1.570297         2.481358
 H        -4.253789        -1.430723         3.377387
 H        -4.194529        -2.538885         2.114214
