19
Iteration:  4187
 C         0.903399        -0.930853         0.316900
 C        -0.401043        -0.402172         0.009590
 C        -1.556330        -0.091562        -0.172858
 C        -2.824363         0.656817        -0.064916
 O        -2.581857         2.086283        -0.089444
 C        -3.488339         0.665136         1.396530
 C        -4.498510        -0.435688         1.413448
 C        -4.014127        -1.857141         1.585275
 O        -5.646747        -0.099643         1.104888
 H         1.783492        -0.623471        -0.166604
 H         0.979730        -0.693734         1.398270
 H         0.853071        -2.046199         0.165002
 H        -3.551365         0.444975        -0.723470
 H        -1.683563         2.138517         0.175985
 H        -2.695544         0.592063         2.201160
 H        -4.062943         1.650673         1.441628
 H        -3.083287        -1.945304         1.083186
 H        -3.835444        -1.906984         2.647232
 H        -4.805879        -2.449192         1.244227
