19
Iteration:  3949charge 0 multiplicity 1
 C         0.579726        -1.167213         0.487602
 C        -0.617364        -0.506283        -0.190047
 C        -1.632531         0.152788        -0.342664
 C        -2.720937         1.019320        -0.199781
 O        -2.078725         2.490816         0.022389
 C        -3.574312         0.760993         1.128059
 C        -4.440605        -0.569095         1.380609
 C        -3.850558        -1.879444         1.865191
 O        -5.739806        -0.676157         1.246416
 H         1.392535        -1.575194        -0.056028
 H         0.841820        -0.337344         1.182043
 H         0.025391        -1.971701         1.098660
 H        -3.550349         1.010873        -0.874735
 H        -2.529101         2.985188        -0.672800
 H        -2.826903         0.693233         1.939284
 H        -4.244868         1.613145         1.400981
 H        -3.555439        -2.500049         0.853273
 H        -2.947664        -1.983159         2.523417
 H        -4.720850        -2.504753         2.281070
