19
Iteration:  4581
 C         0.336192        -1.527303        -0.270824
 C        -0.838558        -0.623764        -0.088585
 C        -1.653160         0.240052         0.126989
 C        -2.838820         1.084238         0.136859
 O        -2.470678         2.561856         0.037357
 C        -3.592320         0.804937         1.513720
 C        -4.233321        -0.609225         1.262622
 C        -4.113199        -1.403333         2.564785
 O        -4.770250        -0.895027         0.250902
 H         1.260171        -1.032933         0.055276
 H         0.267222        -2.464987         0.368862
 H         0.461448        -1.841815        -1.388758
 H        -3.362639         0.969889        -0.750589
 H        -2.097134         2.826610         0.942340
 H        -2.947701         0.958357         2.367844
 H        -4.497581         1.412924         1.568965
 H        -3.099447        -1.711215         2.917243
 H        -4.595384        -0.798271         3.370551
 H        -4.610373        -2.383229         2.482520
