19
Iteration:  4634
 C         0.236167        -1.392514        -0.665851
 C        -0.589609        -0.447247         0.025282
 C        -1.507440         0.280604         0.364037
 C        -2.700132         1.040730         0.275669
 O        -2.369187         2.402368         0.073880
 C        -3.752257         0.863311         1.317375
 C        -4.330888        -0.593892         1.343166
 C        -4.491303        -1.336067         2.686302
 O        -4.623790        -1.121098         0.296195
 H         1.268089        -1.156161        -0.456591
 H         0.044345        -2.439167        -0.320832
 H         0.014205        -1.307875        -1.785253
 H        -3.102763         0.856437        -0.728956
 H        -1.366301         2.540164         0.022994
 H        -3.262592         1.077968         2.290183
 H        -4.646817         1.553276         1.140672
 H        -3.552224        -1.360830         3.243846
 H        -5.154966        -0.752235         3.365320
 H        -4.987915        -2.310299         2.667632
