19
Iteration:  1465charge 0 multiplicity 1
 C         0.894820        -0.831860        -0.100296
 C        -0.500711        -0.244178         0.148126
 C        -1.631484         0.194901         0.089278
 C        -2.809306         1.003100         0.331853
 O        -2.463567         2.500075         0.383703
 C        -3.642092         0.451763         1.405566
 C        -4.453839        -0.761402         1.075457
 C        -5.081686        -1.504510         2.242934
 O        -4.448191        -1.129984        -0.055436
 H         1.352368        -0.432188        -1.046527
 H         1.543270        -0.583866         0.764908
 H         0.877283        -1.952834        -0.195074
 H        -3.438935         0.807029        -0.488590
 H        -2.208169         2.758510         1.255234
 H        -3.015030         0.103660         2.247017
 H        -4.417733         1.182703         1.779796
 H        -4.470599        -1.398679         3.195953
 H        -6.158603        -1.325492         2.397427
 H        -5.041418        -2.591092         2.016390
