19
Iteration:  1830
 C         0.543850        -1.238760        -0.081387
 C        -0.660530        -0.419274         0.035746
 C        -1.614744         0.285715         0.296559
 C        -2.704865         1.202828         0.332779
 O        -2.363223         2.535664         0.677542
 C        -3.933110         0.767326         1.123146
 C        -4.384859        -0.706365         0.957124
 C        -4.146689        -1.628061         2.257984
 O        -4.917571        -1.144220        -0.074684
 H         1.323909        -0.612910        -0.602404
 H         0.985713        -1.435904         0.930104
 H         0.550141        -2.192578        -0.671991
 H        -2.926726         1.271791        -0.732208
 H        -1.899388         2.651634         1.490896
 H        -3.662405         1.173614         2.122577
 H        -4.889194         1.197886         0.712634
 H        -3.655752        -0.998649         2.973572
 H        -5.141289        -1.757089         2.604675
 H        -3.657810        -2.539862         1.968872
