19
Iteration:  3631
 C         0.433680        -1.259701        -0.173394
 C        -0.925395        -0.735040        -0.057862
 C        -1.766500         0.122319         0.120886
 C        -2.833775         1.120450         0.071645
 O        -2.264814         2.464542         0.003524
 C        -3.654077         0.888031         1.365227
 C        -4.331905        -0.521966         1.405878
 C        -4.067787        -1.493144         2.454457
 O        -4.916190        -0.928774         0.386621
 H         0.460736        -2.271220        -0.632427
 H         1.067335        -0.558491        -0.752002
 H         1.022078        -1.578204         0.775121
 H        -3.420776         0.937978        -0.792972
 H        -1.461688         2.263461         0.546318
 H        -2.910658         0.935478         2.231081
 H        -4.492648         1.629583         1.555032
 H        -3.017881        -1.813510         2.226317
 H        -4.137932        -1.031458         3.427501
 H        -4.748159        -2.349043         2.432821
