19
Iteration:  3994
 C         0.630225        -1.073003         0.331134
 C        -0.674278        -0.483335         0.228125
 C        -1.729527        -0.050160        -0.179203
 C        -2.823977         0.889825        -0.116092
 O        -2.202615         2.260750        -0.007014
 C        -3.625387         0.740654         1.170158
 C        -4.400553        -0.516985         1.297834
 C        -3.710222        -1.823018         1.616675
 O        -5.617774        -0.407632         1.222177
 H         1.019926        -1.034246        -0.682420
 H         1.206922        -0.418070         1.021772
 H         0.467580        -2.142408         0.698304
 H        -3.454950         0.885282        -1.063486
 H        -2.763772         2.946177        -0.487803
 H        -2.840208         0.812573         1.929701
 H        -4.234741         1.673153         1.238488
 H        -2.983025        -2.343760         0.797477
 H        -3.069516        -1.533206         2.534061
 H        -4.514964        -2.511346         1.923013
