19
Iteration:   987charge 0 multiplicity 1
 C         1.511279         0.247668         0.437458
 C         0.034679         0.063029         0.183393
 C        -1.155383         0.103577        -0.086236
 C        -2.630716         0.183101        -0.194662
 O        -2.991007         1.337784         0.474215
 C        -3.335133        -0.976511         0.732754
 C        -4.736952        -0.629136         1.106749
 C        -5.026453        -0.318312         2.593022
 O        -5.602318        -0.465322         0.210638
 H         1.877988         1.202217        -0.045512
 H         1.758704         0.372207         1.486511
 H         2.103462        -0.564178         0.071702
 H        -2.763439         0.122365        -1.317822
 H        -2.274089         2.049269         0.300269
 H        -3.130009        -2.051059         0.528796
 H        -2.723533        -0.640915         1.559267
 H        -4.622306         0.736113         2.720131
 H        -6.160571        -0.120005         2.551858
 H        -4.820841        -0.995778         3.421111
