19
Iteration:  4925charge 0 multiplicity 1
 C         0.590432        -0.988191        -1.151124
 C        -0.474494        -0.424741        -0.376301
 C        -1.368428         0.075286         0.243501
 C        -2.656507         0.803696         0.343078
 O        -2.341050         2.234220         0.254869
 C        -3.537423         0.632829         1.655687
 C        -4.398309        -0.633587         1.532081
 C        -5.613439        -0.703277         2.602170
 O        -4.266860        -1.398955         0.614221
 H         1.591204        -0.957782        -0.584211
 H         0.254811        -1.963389        -1.468029
 H         0.741316        -0.370022        -2.034547
 H        -3.209398         0.360186        -0.559944
 H        -1.896972         2.397598        -0.651594
 H        -2.895642         0.704634         2.582461
 H        -4.218753         1.460559         1.629435
 H        -5.021982        -0.562822         3.492163
 H        -6.229387         0.186224         2.572639
 H        -6.129034        -1.610263         2.460550
