19
Iteration:  4875
 C         0.620613        -1.198343        -1.098014
 C        -0.298070        -0.311328        -0.422056
 C        -1.280435         0.290658         0.043862
 C        -2.574187         0.938344         0.284173
 O        -2.500734         2.309993         0.332414
 C        -3.440674         0.498159         1.556848
 C        -4.523438        -0.645259         1.582883
 C        -5.592009        -0.752940         2.675226
 O        -4.413894        -1.467062         0.663411
 H         1.534906        -1.169300        -0.558893
 H         0.220363        -2.248755        -1.098690
 H         0.809369        -0.888754        -2.177765
 H        -3.080769         0.542009        -0.652571
 H        -1.576327         2.605173         0.280689
 H        -2.834244         0.414476         2.439311
 H        -3.956484         1.534413         1.503913
 H        -5.175923        -0.468481         3.690150
 H        -6.243214         0.149299         2.264889
 H        -6.251429        -1.629349         2.431248
