19
Iteration:  1049
 C         1.523101         0.103087         0.288545
 C         0.045852         0.103003         0.214898
 C        -1.163650         0.274639         0.184633
 C        -2.575804         0.231510        -0.090706
 O        -3.045310         1.429755         0.221291
 C        -3.203036        -0.916841         0.847526
 C        -4.755565        -0.639150         1.114349
 C        -5.164142        -0.511306         2.604935
 O        -5.479044        -0.363075         0.153389
 H         2.098728         0.839290        -0.286553
 H         1.703662         0.233497         1.390081
 H         1.836995        -0.949455         0.006634
 H        -2.927873         0.101221        -1.090308
 H        -3.956381         1.132601         0.528765
 H        -3.041000        -1.877026         0.385679
 H        -2.533862        -0.887172         1.765750
 H        -4.309385        -0.051327         2.921705
 H        -5.983938         0.205428         2.606980
 H        -5.277779        -1.380415         3.303532
