19
Iteration:   602charge 0 multiplicity 1
 C         1.168063        -0.470600        -0.628984
 C        -0.088524        -0.018694        -0.159768
 C        -1.205267         0.178822         0.239367
 C        -2.546836         0.654868         0.501370
 O        -2.591337         2.069154         0.836437
 C        -3.328196        -0.151588         1.593920
 C        -4.670035        -0.654874         1.155778
 C        -5.885534        -0.597400         1.871433
 O        -4.749916        -1.255440         0.076827
 H         1.985486         0.193748        -0.386975
 H         1.482804        -1.426627        -0.196125
 H         1.218677        -0.576695        -1.744757
 H        -3.205785         0.355251        -0.333756
 H        -2.751914         2.086496         1.799100
 H        -2.840793        -1.097690         1.885542
 H        -3.428230         0.363785         2.597091
 H        -6.512921         0.227029         1.760285
 H        -6.338816        -1.549851         1.689059
 H        -5.728106        -0.715706         2.956812
