19
Iteration:   239
 C         1.442635        -0.303615         0.055226
 C         0.060282         0.043033        -0.030108
 C        -1.161990         0.102698         0.075273
 C        -2.670522         0.178282         0.115041
 O        -2.923749         1.629104        -0.019512
 C        -3.191460        -0.270372         1.356803
 C        -4.722257        -0.422883         1.236935
 C        -5.241819        -1.737636         1.813435
 O        -5.480876         0.501181         1.026737
 H         1.840262         0.014785         1.080258
 H         1.581716        -1.431892        -0.016391
 H         2.094226         0.037976        -0.787663
 H        -2.985401        -0.447136        -0.750675
 H        -2.854633         1.733349        -1.020625
 H        -2.669119        -1.175719         1.822975
 H        -2.982040         0.561706         2.068982
 H        -4.550800        -2.188730         2.645036
 H        -6.309310        -1.758924         2.091668
 H        -5.169689        -2.285108         0.811538
