19
Iteration:   986
 C         1.511674         0.254240         0.434123
 C         0.030282         0.060038         0.183546
 C        -1.156051         0.097602        -0.090371
 C        -2.630958         0.181447        -0.194650
 O        -2.988767         1.339478         0.474802
 C        -3.327398        -0.979756         0.726109
 C        -4.735182        -0.623285         1.104688
 C        -5.026168        -0.310457         2.585725
 O        -5.607115        -0.468122         0.215045
 H         1.905404         1.207727        -0.024347
 H         1.743847         0.369029         1.498955
 H         2.101201        -0.583136         0.074949
 H        -2.756745         0.145324        -1.313601
 H        -2.282856         2.021720         0.371135
 H        -3.114613        -2.039387         0.561855
 H        -2.733619        -0.638358         1.585605
 H        -4.642267         0.707272         2.723387
 H        -6.158104        -0.155220         2.572251
 H        -4.834410        -0.983575         3.424604
