19
Iteration:  2301charge 0 multiplicity 1
 C         0.724168        -1.148148         0.078360
 C        -0.456029        -0.297687         0.223045
 C        -1.627513         0.049924         0.163197
 C        -2.752273         0.946699         0.286263
 O        -2.486953         2.360960        -0.013887
 C        -3.725841         0.759407         1.482971
 C        -4.508502        -0.584258         1.216811
 C        -3.866336        -1.942091         1.844916
 O        -5.419529        -0.485824         0.432549
 H         1.565987        -0.920600         0.682205
 H         0.282435        -2.118741         0.386389
 H         1.125989        -1.256721        -0.945289
 H        -3.472125         0.749560        -0.558242
 H        -1.730505         2.564256         0.507902
 H        -3.199965         0.777373         2.415066
 H        -4.441787         1.564901         1.326883
 H        -4.129240        -2.575605         0.971953
 H        -2.792292        -1.666480         1.821876
 H        -4.455207        -2.323349         2.659820
