19
Iteration:  2288
 C         0.678415        -1.151900         0.024176
 C        -0.413856        -0.292274         0.214307
 C        -1.563428         0.136233         0.298835
 C        -2.780971         0.928907         0.232424
 O        -2.397103         2.314181        -0.012245
 C        -3.791300         0.778602         1.480009
 C        -4.527820        -0.528038         1.251047
 C        -3.919096        -1.930013         1.728960
 O        -5.479201        -0.560993         0.442973
 H         1.471726        -0.730576         0.715525
 H         0.582129        -2.216998         0.347052
 H         1.010456        -1.109567        -1.038788
 H        -3.285565         0.593807        -0.746761
 H        -1.623283         2.701930         0.537285
 H        -3.255464         0.819809         2.432319
 H        -4.471500         1.640100         1.535291
 H        -4.107249        -2.949376         1.386374
 H        -2.825579        -1.999658         1.901544
 H        -3.961487        -1.897961         2.791326
