19
Iteration:   776charge 0 multiplicity 1
 C         1.420868        -0.271182        -0.340207
 C         0.010976        -0.069141        -0.008376
 C        -1.128114         0.359371         0.143189
 C        -2.610873         0.553446         0.373800
 O        -3.003276         1.831456         0.911092
 C        -3.128610        -0.652871         1.271753
 C        -4.649379        -0.727685         1.084401
 C        -5.608326        -0.073322         2.003252
 O        -5.166881        -1.273154         0.090056
 H         2.042345         0.587212        -0.425540
 H         1.864153        -0.874133         0.454336
 H         1.543125        -0.940175        -1.211035
 H        -3.079795         0.535279        -0.612202
 H        -2.353520         2.477332         0.728654
 H        -2.763517        -1.516523         0.790118
 H        -2.800524        -0.558276         2.308807
 H        -5.391523         0.843605         2.566919
 H        -6.652472        -0.006788         1.617676
 H        -5.652428        -0.755572         2.953404
