19
Iteration:  3468charge 0 multiplicity 1
 C         0.375607        -1.276067        -0.065999
 C        -0.893556        -0.614769        -0.430830
 C        -1.821561         0.124371        -0.245912
 C        -2.878119         1.134467         0.180401
 O        -2.258677         2.448435         0.285880
 C        -3.541643         0.728600         1.468414
 C        -4.119019        -0.651089         1.315295
 C        -4.511795        -1.345401         2.675861
 O        -4.563576        -0.925641         0.266025
 H         0.188005        -2.296198         0.134725
 H         1.080641        -1.267550        -0.871674
 H         0.835449        -0.986366         0.881867
 H        -3.661075         1.187654        -0.637184
 H        -1.656376         2.515405        -0.460913
 H        -3.043646         0.931077         2.462226
 H        -4.437468         1.350696         1.551607
 H        -3.646354        -1.541496         3.274181
 H        -5.332575        -0.911979         3.189707
 H        -4.749368        -2.362443         2.375567
