19
Iteration:  3173charge 0 multiplicity 1
 C         0.612667        -1.008284        -0.577163
 C        -0.632565        -0.373087        -0.278540
 C        -1.744896         0.119483        -0.266420
 C        -2.786022         0.974885         0.154165
 O        -2.244324         2.282957         0.625578
 C        -3.441497         0.483641         1.365151
 C        -4.274088        -0.750555         1.398110
 C        -5.015367        -0.693719         2.639057
 O        -4.646921        -1.450192         0.374181
 H         0.795916        -1.841913         0.075458
 H         0.440009        -1.331820        -1.602068
 H         1.489788        -0.329103        -0.670047
 H        -3.582952         1.239829        -0.666366
 H        -1.281928         2.290758         0.237440
 H        -2.723871         0.472597         2.272712
 H        -4.148356         1.291653         1.538313
 H        -4.391215        -0.386719         3.511070
 H        -5.842148         0.073785         2.674378
 H        -5.373583        -1.679462         2.935858
