19
Iteration:  2014
 C         0.370058        -1.565547         0.296634
 C        -0.653912        -0.439277         0.333140
 C        -1.421536         0.526008         0.255473
 C        -2.687627         1.184349         0.186334
 O        -2.754537         2.689397         0.247741
 C        -3.607663         0.754895         1.347114
 C        -4.300523        -0.683665         1.077580
 C        -3.793686        -1.875021         1.682345
 O        -5.237628        -0.826564         0.283685
 H         1.381153        -1.145284         0.323625
 H         0.308605        -2.266959         1.113397
 H         0.243939        -2.084811        -0.646051
 H        -3.229223         0.828829        -0.700465
 H        -2.039818         2.905191        -0.322398
 H        -2.960913         0.574221         2.190567
 H        -4.216618         1.652864         1.452916
 H        -4.160377        -2.775354         1.047014
 H        -2.632448        -1.829311         1.679348
 H        -3.980283        -2.274346         2.734157
