19
Iteration:  3329
 C         0.453364        -1.379873        -0.792257
 C        -0.618821        -0.498870        -0.211940
 C        -1.319758         0.460600         0.169676
 C        -2.640836         1.103201         0.225442
 O        -2.383915         2.572318         0.318017
 C        -3.654284         0.695009         1.386897
 C        -4.279460        -0.707365         1.419108
 C        -5.094215        -1.141430         2.677005
 O        -4.470100        -1.422948         0.421176
 H         0.275124        -2.285621        -0.231983
 H         0.180173        -1.506524        -1.852260
 H         1.496382        -1.029116        -0.612677
 H        -3.204621         0.917381        -0.623426
 H        -1.705410         2.664251        -0.314593
 H        -3.222661         0.829234         2.389172
 H        -4.504261         1.440619         1.428184
 H        -4.552105        -1.811044         3.384658
 H        -5.400680        -0.237864         3.241632
 H        -6.093643        -1.572737         2.396131
