19
Iteration:  1349
 C         1.063266        -0.883595        -0.047729
 C        -0.221665        -0.071740         0.066104
 C        -1.307379         0.419795         0.121144
 C        -2.735503         0.940832         0.252557
 O        -2.853165         2.389401         0.380813
 C        -3.341350         0.121185         1.529314
 C        -4.379964        -0.835688         1.062803
 C        -5.373374        -1.277218         2.333650
 O        -4.681667        -1.099268        -0.085928
 H         1.561583        -0.591170        -1.046156
 H         1.781742        -0.674960         0.828090
 H         0.681375        -1.944615        -0.235972
 H        -3.318041         0.501908        -0.675675
 H        -3.673494         2.784157         0.251207
 H        -2.504381        -0.517431         1.920443
 H        -3.575466         0.810933         2.340974
 H        -5.713130        -2.303115         2.523762
 H        -5.083706        -0.633529         3.178070
 H        -6.305807        -0.855438         1.883098
