19
Iteration:  2506
 C         0.330818        -1.466122        -0.159005
 C        -0.628657        -0.382314         0.189959
 C        -1.698565         0.174209         0.282535
 C        -2.904484         1.110857         0.155477
 O        -2.268722         2.461304         0.243733
 C        -3.939665         0.943361         1.358783
 C        -4.336378        -0.547829         1.187052
 C        -3.680044        -1.572173         2.177957
 O        -5.072478        -1.018103         0.222738
 H         1.111092        -1.711739         0.567004
 H        -0.362262        -2.291365        -0.288363
 H         0.782973        -1.195992        -1.107301
 H        -3.369642         1.009063        -0.829830
 H        -1.647505         2.518194         0.977718
 H        -3.371248         1.335346         2.177705
 H        -4.838244         1.633305         1.174785
 H        -4.414935        -2.112420         2.751759
 H        -3.250554        -2.288409         1.487589
 H        -3.177607        -0.918870         2.823625
