19
Iteration:  2205
 C         0.818122        -1.108629         0.074964
 C        -0.407800        -0.360985         0.136342
 C        -1.524435         0.109513         0.257400
 C        -2.687310         0.994664         0.144868
 O        -2.285367         2.356579         0.316655
 C        -3.833406         0.777826         1.096128
 C        -4.576459        -0.598470         1.043736
 C        -3.881938        -1.748538         1.776612
 O        -5.741191        -0.780832         0.674178
 H         1.696059        -0.654802         0.490406
 H         0.554524        -2.077144         0.517323
 H         1.151007        -1.201345        -0.969306
 H        -2.842172         0.967644        -0.889182
 H        -1.837226         2.375742         1.264515
 H        -3.537985         1.164990         2.078889
 H        -4.564624         1.463980         0.623406
 H        -4.359593        -1.629905         2.774639
 H        -4.201890        -2.691024         1.359738
 H        -2.817981        -1.526010         2.057766
