19
Iteration:  3087
 C         0.655681        -1.080991        -0.695974
 C        -0.449358        -0.279821        -0.309019
 C        -1.627092         0.039437        -0.083601
 C        -2.749674         0.894566         0.227189
 O        -2.418805         2.229568         0.275486
 C        -3.412554         0.537933         1.554010
 C        -4.304249        -0.642246         1.455628
 C        -5.165741        -0.972664         2.692387
 O        -4.600328        -1.087433         0.372744
 H         0.867537        -1.905571         0.027604
 H         0.572541        -1.620637        -1.678871
 H         1.629730        -0.462512        -0.706536
 H        -3.585013         0.827180        -0.557879
 H        -1.577234         2.312154         0.786694
 H        -2.943230         0.592007         2.541910
 H        -4.163116         1.393628         1.721310
 H        -4.862440        -0.491603         3.614440
 H        -6.127717        -0.709610         2.287734
 H        -5.125568        -1.993853         3.009262
