19
Iteration:   666charge 0 multiplicity 1
 C         1.220623        -0.371317        -0.591766
 C        -0.126002        -0.122864        -0.129618
 C        -1.227307         0.179513         0.252184
 C        -2.557977         0.631097         0.509577
 O        -2.600902         2.007512         0.908137
 C        -3.275631        -0.207865         1.557014
 C        -4.618217        -0.687785         1.053530
 C        -5.874315        -0.368120         1.878254
 O        -4.818920        -1.390415         0.079175
 H         1.677414         0.576075        -0.416176
 H         1.760942        -1.165278        -0.088755
 H         1.233536        -0.434365        -1.686825
 H        -3.024063         0.693157        -0.485964
 H        -3.273504         2.083461         1.601514
 H        -2.735207        -1.167610         1.642710
 H        -3.134574         0.235743         2.512779
 H        -6.275616         0.679627         1.888176
 H        -6.654735        -1.053888         1.485738
 H        -5.608493        -0.802301         2.921304
