19
Iteration:  2387
 C         0.430688        -1.269377         0.286340
 C        -0.584931        -0.221187         0.043809
 C        -1.666759         0.259548        -0.149147
 C        -2.834404         1.123112         0.084571
 O        -2.455437         2.429753         0.141495
 C        -3.409253         0.679042         1.355029
 C        -4.316653        -0.668964         1.238055
 C        -3.973628        -1.931361         1.961125
 O        -5.327261        -0.670917         0.501175
 H         0.999072        -0.973622         1.234206
 H        -0.073045        -2.274003         0.501743
 H         1.242928        -1.362309        -0.516339
 H        -3.598949         0.974072        -0.767254
 H        -1.677009         2.491540         0.719408
 H        -2.627927         0.654796         2.139351
 H        -4.097010         1.595374         1.558247
 H        -2.898046        -1.937977         2.249571
 H        -4.637272        -1.905956         2.884432
 H        -4.144899        -2.849153         1.378884
