19
Iteration:  1747
 C         0.410677        -1.294114        -0.043298
 C        -0.549712        -0.256983         0.135162
 C        -1.617728         0.327036         0.234246
 C        -2.810420         1.152077         0.277992
 O        -2.511719         2.581554         0.502043
 C        -3.803240         0.745802         1.431861
 C        -4.318431        -0.684539         1.054778
 C        -4.353890        -1.717491         2.111074
 O        -4.542439        -1.099264        -0.107851
 H         1.053050        -1.124684        -0.844225
 H         0.817990        -1.572196         0.922954
 H        -0.321262        -2.052614        -0.373540
 H        -3.189254         1.159664        -0.767853
 H        -1.726830         2.652990         1.038263
 H        -3.245933         0.853950         2.371383
 H        -4.657555         1.385337         1.554633
 H        -3.863252        -2.597029         1.648664
 H        -4.324084        -1.422381         3.170125
 H        -5.423487        -2.066999         2.053676
