19
Iteration:  1059
 C         1.484042         0.034060         0.296734
 C         0.073217         0.102215         0.253713
 C        -1.077122         0.389360         0.103948
 C        -2.526670         0.184324        -0.117443
 O        -3.089538         1.454896         0.239937
 C        -3.212688        -0.911694         0.851815
 C        -4.745909        -0.682906         1.098006
 C        -5.192143        -0.529691         2.647396
 O        -5.461322        -0.343889         0.155475
 H         1.767596         0.812164        -0.396187
 H         1.998836         0.280367         1.246683
 H         1.929252        -0.929089        -0.084770
 H        -2.758157        -0.146301        -1.136175
 H        -4.114141         1.448439         0.350501
 H        -2.958384        -1.897284         0.505094
 H        -2.882319        -0.857900         1.920010
 H        -4.494154         0.027775         3.200898
 H        -6.103054         0.066185         2.701633
 H        -5.499176        -1.435039         3.253082
