19
Iteration:  2632
 C         0.151604        -1.538538         0.003667
 C        -0.794238        -0.439342        -0.257531
 C        -1.726953         0.372511        -0.105857
 C        -2.777570         1.316353         0.256964
 O        -2.219082         2.640139         0.267878
 C        -3.750232         0.872724         1.381533
 C        -4.303960        -0.667773         1.239674
 C        -4.040967        -1.661267         2.421069
 O        -4.768934        -1.127344         0.257042
 H         0.357650        -1.371935         1.099024
 H        -0.452312        -2.496524        -0.083918
 H         1.130574        -1.634849        -0.565130
 H        -3.433829         1.270264        -0.681790
 H        -1.327038         2.581130         0.758882
 H        -3.335551         0.990116         2.456078
 H        -4.682435         1.385951         1.279934
 H        -3.218670        -2.113632         1.847035
 H        -3.746255        -1.329493         3.399760
 H        -4.844514        -2.345202         2.314641
