19
Iteration:  2992
 C         0.609438        -1.317836        -0.709115
 C        -0.220721        -0.152577        -0.332772
 C        -1.385075         0.177806        -0.034343
 C        -2.637699         0.876541         0.252118
 O        -2.654028         2.301188         0.224860
 C        -3.414077         0.518380         1.671661
 C        -4.537691        -0.534220         1.461503
 C        -5.075467        -1.055059         2.682888
 O        -4.662077        -1.059151         0.252146
 H         0.617411        -1.815420         0.256059
 H         0.159762        -2.011517        -1.445327
 H         1.666847        -1.126832        -0.841356
 H        -3.352002         0.600412        -0.458961
 H        -1.997522         2.589863         0.788655
 H        -2.865438         0.273310         2.599213
 H        -3.862275         1.544700         1.821452
 H        -4.713221        -0.589622         3.667586
 H        -6.180384        -1.195822         2.656129
 H        -4.741222        -2.114122         2.916993
