19
Iteration:  3554charge 0 multiplicity 1
 C         0.251104        -1.652275        -0.384626
 C        -0.552702        -0.461588        -0.051480
 C        -1.277520         0.475859         0.370935
 C        -2.584500         1.189598         0.140314
 O        -2.644691         2.567676         0.051491
 C        -3.572225         0.722753         1.311541
 C        -4.274159        -0.636077         1.371555
 C        -4.332427        -1.459051         2.551166
 O        -4.962282        -0.990425         0.358357
 H        -0.340608        -2.598962        -0.544036
 H         0.966443        -1.537570        -1.224671
 H         0.882192        -1.769304         0.585690
 H        -3.029391         0.736277        -0.688296
 H        -2.322370         2.719444        -0.931014
 H        -3.143235         0.860418         2.352922
 H        -4.421556         1.476182         1.097627
 H        -3.372320        -1.968497         2.721550
 H        -4.560073        -0.896546         3.467518
 H        -5.109668        -2.209705         2.406224
