19
Iteration:    21charge 0 multiplicity 1
 C         1.484651         0.197998         0.017750
 C         0.015236         0.097532         0.136674
 C        -1.176856        -0.248774         0.023036
 C        -2.622930        -0.302148         0.094876
 O        -3.276871         0.875085        -0.570727
 C        -3.114590        -0.187779         1.508444
 C        -4.617484        -0.147915         1.458130
 C        -5.472855        -1.291799         0.917725
 O        -5.080921         0.720656         2.136095
 H         2.001024         0.279417         1.000669
 H         1.892172        -0.705145        -0.444146
 H         1.770657         1.070551        -0.538192
 H        -2.954801        -1.168327        -0.432845
 H        -2.728432         0.978937        -1.344651
 H        -2.740297        -1.108461         2.110260
 H        -2.733265         0.734948         1.887678
 H        -5.003454        -2.292363         1.188167
 H        -6.455064        -1.098938         1.384579
 H        -5.562034        -1.432342        -0.173486
