19
Iteration:  3961charge 0 multiplicity 1
 C         0.545211        -1.110300         0.466493
 C        -0.632119        -0.493831        -0.045703
 C        -1.631728         0.131142        -0.372360
 C        -2.784183         1.128707        -0.216594
 O        -2.041931         2.404260        -0.029167
 C        -3.583693         0.686831         1.188927
 C        -4.559336        -0.575465         1.405693
 C        -3.821237        -1.949262         1.808368
 O        -5.715621        -0.621017         1.256713
 H         1.293558        -1.358410        -0.277816
 H         1.112557        -0.485822         1.188534
 H         0.408687        -2.049016         1.081143
 H        -3.250157         1.219367        -1.220250
 H        -2.330537         3.085007        -0.749346
 H        -2.751366         0.572318         1.883028
 H        -4.149618         1.618129         1.434876
 H        -3.357263        -2.493888         0.867006
 H        -2.980890        -1.685786         2.513731
 H        -4.569948        -2.573501         2.347804
