19
Iteration:  1759charge 0 multiplicity 1
 C         0.378733        -1.330787        -0.094812
 C        -0.488745        -0.199125         0.222341
 C        -1.602241         0.387397         0.265346
 C        -2.808761         1.201229         0.221531
 O        -2.484068         2.510848         0.549821
 C        -3.848807         0.724860         1.315229
 C        -4.303956        -0.727122         1.015329
 C        -4.392521        -1.708155         2.202529
 O        -4.607519        -1.056003        -0.118636
 H         1.127861        -1.030998        -0.802373
 H         1.037564        -1.765079         0.635972
 H        -0.111167        -2.202668        -0.508813
 H        -3.425087         1.091689        -0.719287
 H        -1.837716         2.468263         1.260282
 H        -3.283759         0.803494         2.249154
 H        -4.681770         1.378208         1.294696
 H        -3.495300        -2.371972         2.128001
 H        -4.021628        -1.318112         3.162814
 H        -5.314809        -2.312830         2.133740
