19
Iteration:   550
 C         1.201898        -0.553947        -0.550325
 C        -0.172900        -0.189529        -0.129614
 C        -1.241259         0.344906         0.195342
 C        -2.632895         0.695793         0.511047
 O        -2.698919         2.116068         0.808642
 C        -3.300887        -0.150513         1.648699
 C        -4.596190        -0.692635         1.047634
 C        -5.715979        -0.774664         2.086160
 O        -4.791605        -1.110572        -0.074290
 H         2.040428         0.103780        -0.181900
 H         1.430065        -1.589875        -0.188269
 H         1.352942        -0.553366        -1.668263
 H        -3.303638         0.388537        -0.306182
 H        -1.817299         2.358213         0.640954
 H        -2.881540        -0.974178         2.213244
 H        -3.534796         0.605526         2.506570
 H        -6.218660         0.226259         2.297125
 H        -6.524302        -1.440691         1.672815
 H        -5.462557        -1.197108         3.069989
