19
Iteration:  1291charge 0 multiplicity 1
 C         1.240465        -0.608906        -0.177054
 C        -0.125060        -0.119395         0.018458
 C        -1.209348         0.302479         0.327039
 C        -2.694346         0.744356         0.370733
 O        -2.764374         2.173428         0.202456
 C        -3.433609         0.101039         1.569525
 C        -4.613333        -0.682182         1.147273
 C        -5.502005        -1.267331         2.292518
 O        -4.791176        -0.923523        -0.027814
 H         1.524511        -0.085557        -1.133257
 H         1.934447        -0.337044         0.625502
 H         1.265954        -1.660315        -0.341135
 H        -2.976364         0.253573        -0.604537
 H        -3.511611         2.446243        -0.462208
 H        -2.746811        -0.460008         2.206731
 H        -3.831863         0.924384         2.173214
 H        -6.200595        -2.009777         1.812746
 H        -4.836594        -1.965055         2.879556
 H        -5.949803        -0.564285         2.971426
