19
Iteration:  2814charge 0 multiplicity 1
 C         0.507547        -1.300985        -0.423232
 C        -0.683100        -0.648878         0.018924
 C        -1.605366         0.168792         0.005042
 C        -2.650821         1.038265         0.180644
 O        -2.434841         2.471420         0.277254
 C        -3.519796         0.628996         1.399600
 C        -4.334476        -0.650207         1.254554
 C        -4.363938        -1.286469         2.570960
 O        -5.025265        -0.874360         0.264475
 H         1.251731        -1.729573         0.185694
 H         0.240381        -1.986358        -1.215769
 H         0.940593        -0.378814        -0.795599
 H        -3.285624         0.982318        -0.650642
 H        -1.634485         2.717048         0.652925
 H        -2.965585         0.794381         2.279338
 H        -4.259215         1.471475         1.435832
 H        -5.204892        -0.793234         3.163552
 H        -4.772940        -2.337172         2.579868
 H        -3.427376        -1.505569         3.124465
