19
Iteration:  2826charge 0 multiplicity 1
 C         0.578545        -1.212676        -0.443120
 C        -0.704823        -0.720212        -0.037901
 C        -1.595503         0.154090        -0.003722
 C        -2.712640         1.101903         0.120061
 O        -2.336324         2.492070         0.256331
 C        -3.537477         0.703189         1.389137
 C        -4.412304        -0.580395         1.292042
 C        -4.478281        -1.447692         2.674122
 O        -4.996469        -0.912073         0.286666
 H         1.018804        -1.646868         0.413397
 H         0.574751        -1.934934        -1.249793
 H         1.219120        -0.437035        -0.842030
 H        -3.358388         1.000308        -0.720519
 H        -1.391750         2.452771         0.580675
 H        -2.941473         0.606434         2.284715
 H        -4.269704         1.523808         1.474194
 H        -5.120209        -0.862116         3.416023
 H        -4.835425        -2.462417         2.412666
 H        -3.501459        -1.314823         3.159358
