19
Iteration:  1243charge 0 multiplicity 1
 C         1.430528        -0.355011        -0.260400
 C        -0.026460        -0.025841         0.190284
 C        -1.220587         0.245840         0.310399
 C        -2.599365         0.495778         0.173352
 O        -2.711977         1.981394         0.254302
 C        -3.428923         0.091806         1.442933
 C        -4.755583        -0.602371         1.163246
 C        -5.537598        -1.276246         2.399777
 O        -5.098804        -0.841691         0.032051
 H         1.856163         0.131993        -1.106321
 H         2.035263        -0.090547         0.635035
 H         1.454053        -1.479950        -0.287895
 H        -3.014810         0.041964        -0.842219
 H        -2.183254         2.332141        -0.456539
 H        -3.003834        -0.429215         2.314929
 H        -3.797968         1.125612         1.728812
 H        -6.619704        -1.314681         2.264298
 H        -5.252035        -2.379255         2.228861
 H        -5.125507        -0.884656         3.411855
