19
Iteration:  3385
 C         0.465971        -1.328840        -0.467970
 C        -0.664123        -0.416736        -0.242151
 C        -1.742600         0.229221        -0.207173
 C        -2.897103         1.101646         0.081642
 O        -2.316014         2.297312         0.573012
 C        -3.669823         0.650023         1.338910
 C        -4.231560        -0.615035         1.365362
 C        -4.752729        -1.034664         2.737298
 O        -4.418483        -1.230625         0.289527
 H         0.313083        -2.376759        -0.076972
 H         0.821236        -1.541691        -1.527811
 H         1.373824        -0.851864        -0.037819
 H        -3.580611         1.238903        -0.713949
 H        -1.393776         2.406841         0.131730
 H        -3.134241         0.879696         2.243671
 H        -4.592070         1.344899         1.221342
 H        -3.835902        -1.294813         3.314996
 H        -4.954765        -0.029689         3.204605
 H        -5.618500        -1.702051         2.680802
