19
Iteration:  1337
 C         1.077959        -0.803991        -0.123897
 C        -0.205903        -0.166165         0.131135
 C        -1.278923         0.391579         0.109397
 C        -2.722495         0.899632         0.335220
 O        -2.872593         2.389775         0.316108
 C        -3.329134         0.100376         1.507547
 C        -4.482713        -0.863629         1.162422
 C        -5.348936        -1.206108         2.224790
 O        -4.684915        -1.037943        -0.054305
 H         1.684993        -0.462670        -1.030520
 H         1.762886        -0.658806         0.769139
 H         1.010245        -1.909756        -0.113842
 H        -3.311405         0.601540        -0.629105
 H        -3.866766         2.415066         0.369620
 H        -2.528818        -0.444787         2.056229
 H        -3.771288         0.760498         2.251007
 H        -5.508107        -2.317607         2.222182
 H        -5.042596        -0.971239         3.248923
 H        -6.287916        -0.677539         2.006452
