19
Iteration:  4073charge 0 multiplicity 1
 C         0.765600        -1.348527         0.064332
 C        -0.274444        -0.349156         0.279369
 C        -1.326931         0.253351         0.428417
 C        -2.597248         0.825576         0.023435
 O        -2.568426         2.180143        -0.405170
 C        -3.689559         0.765489         1.417709
 C        -4.579705        -0.423224         1.319965
 C        -3.875811        -1.767371         1.518105
 O        -5.775037        -0.391216         1.126864
 H         1.083916        -1.184072        -1.020915
 H         1.580147        -1.234319         0.770962
 H         0.246250        -2.278782         0.097004
 H        -3.097222         0.153815        -0.652745
 H        -3.452130         2.578001        -0.259807
 H        -3.063719         0.775064         2.308415
 H        -4.283793         1.673101         1.397314
 H        -3.015607        -1.920970         0.775032
 H        -3.267965        -1.816561         2.490977
 H        -4.597739        -2.635283         1.462454
