19
Iteration:  3639
 C         0.424174        -1.213628        -0.112355
 C        -0.947329        -0.806128        -0.073546
 C        -1.764987         0.122032        -0.018033
 C        -2.874210         1.109397         0.062485
 O        -2.181442         2.442433         0.012179
 C        -3.669569         0.883239         1.431767
 C        -4.309277        -0.499056         1.397470
 C        -4.061259        -1.489008         2.468060
 O        -4.942865        -0.945309         0.401554
 H         0.612575        -2.139653        -0.755534
 H         1.033379        -0.450013        -0.640106
 H         0.861644        -1.298191         0.903450
 H        -3.659637         0.968947        -0.798628
 H        -1.522200         2.373392         0.695569
 H        -3.023382         1.080433         2.293858
 H        -4.433789         1.682164         1.449390
 H        -2.993512        -1.741923         2.178808
 H        -4.104533        -1.140628         3.577775
 H        -4.634506        -2.388488         2.107085
