19
Iteration:  3355charge 0 multiplicity 1
 C         0.505315        -1.408646        -0.633628
 C        -0.635873        -0.464067        -0.448312
 C        -1.522404         0.243502         0.098941
 C        -2.608570         1.163778         0.239958
 O        -2.403850         2.581219         0.427762
 C        -3.616421         0.763194         1.310190
 C        -4.430502        -0.633086         1.279819
 C        -4.927088        -1.139636         2.726042
 O        -4.470952        -1.450728         0.445145
 H         0.237250        -2.247118         0.091339
 H         0.711524        -1.625333        -1.712095
 H         1.335729        -0.877080        -0.147054
 H        -3.380773         1.076512        -0.621097
 H        -1.558376         2.763493         0.116034
 H        -3.323197         0.799571         2.379636
 H        -4.378883         1.654176         1.294865
 H        -4.052754        -1.630345         3.157212
 H        -5.221923        -0.396637         3.479663
 H        -5.798760        -1.734715         2.629651
