19
Iteration:  4292charge 0 multiplicity 1
 C         0.959301        -1.055109         0.077612
 C        -0.392327        -0.407387         0.029966
 C        -1.569407        -0.075153         0.002456
 C        -2.784986         0.722330         0.053966
 O        -2.338070         2.092482         0.026008
 C        -3.739259         0.762228         1.264112
 C        -4.663684        -0.407575         1.265081
 C        -3.820431        -1.672722         1.718885
 O        -5.835679        -0.355872         1.100358
 H         1.797240        -0.382261        -0.320043
 H         1.113504        -1.301433         1.148333
 H         0.867142        -2.018078        -0.393323
 H        -3.320609         0.619598        -1.032058
 H        -1.469972         2.131540         0.348604
 H        -3.090442         0.798110         2.166085
 H        -4.308601         1.692694         1.234843
 H        -2.925796        -1.698918         1.065259
 H        -3.618468        -1.266166         2.728413
 H        -4.449744        -2.567836         1.616488
