19
Iteration:   633
 C         1.219976        -0.423972        -0.656880
 C        -0.088214        -0.071191        -0.108136
 C        -1.204435         0.227361         0.251487
 C        -2.606910         0.639283         0.511593
 O        -2.612370         2.075690         0.970393
 C        -3.390730        -0.266709         1.619261
 C        -4.656286        -0.890924         1.103160
 C        -5.931662        -0.395101         1.973101
 O        -4.705290        -1.306169        -0.043831
 H         1.866898         0.371240        -0.390874
 H         1.717882        -1.315572        -0.277511
 H         1.129240        -0.554585        -1.739353
 H        -3.221875         0.533861        -0.423102
 H        -2.124309         2.437139         0.198308
 H        -2.738001        -1.056663         2.040780
 H        -3.581234         0.504968         2.299334
 H        -6.268801         0.624398         1.761896
 H        -6.638364        -1.218998         1.918455
 H        -5.420917        -0.313290         2.991759
