19
Iteration:  4820
 C         0.585845        -1.044988        -0.659200
 C        -0.688286        -0.488036        -0.454375
 C        -1.683887         0.136119        -0.285992
 C        -2.715782         0.991992         0.182629
 O        -2.492279         2.419042         0.387381
 C        -3.190824         0.276383         1.629130
 C        -4.314229        -0.686821         1.501626
 C        -5.337704        -0.526793         2.640682
 O        -4.340238        -1.453931         0.500794
 H         1.364504        -0.755700        -0.023383
 H         0.559607        -2.139758        -0.594217
 H         0.871541        -0.878394        -1.729686
 H        -3.619303         0.972420        -0.501657
 H        -1.512728         2.485881         0.693808
 H        -2.313891        -0.228072         2.007473
 H        -3.444894         1.145793         2.331406
 H        -4.791475        -0.564749         3.603691
 H        -6.084172         0.283358         2.360283
 H        -5.827860        -1.495781         2.498642
