19
Iteration:  4660
 C         0.395417        -1.390054        -0.709886
 C        -0.565815        -0.382537        -0.303020
 C        -1.434349         0.124017         0.412932
 C        -2.755048         0.953672         0.379207
 O        -2.368804         2.466365         0.187158
 C        -3.834460         0.818655         1.363111
 C        -4.357365        -0.608981         1.317062
 C        -4.624705        -1.156806         2.695163
 O        -4.563909        -1.174201         0.313758
 H         1.458609        -1.208333        -0.308248
 H        -0.025563        -2.336170        -0.297597
 H         0.321710        -1.487454        -1.809356
 H        -3.155019         0.872046        -0.529033
 H        -1.501674         2.451845        -0.379990
 H        -3.503310         1.019430         2.373885
 H        -4.661231         1.433615         1.121582
 H        -3.701998        -1.018556         3.344065
 H        -5.269488        -0.445508         3.236379
 H        -5.178625        -2.073832         2.891307
