19
Iteration:  3750
 C         0.458858        -1.470858         0.009957
 C        -0.743084        -0.622555        -0.079396
 C        -1.602504         0.231112         0.112734
 C        -2.754397         1.107288        -0.067720
 O        -2.347902         2.490440         0.120590
 C        -3.663069         0.853967         1.099490
 C        -4.277671        -0.587770         1.325656
 C        -3.808420        -1.595372         2.291067
 O        -5.381920        -0.793573         0.744191
 H         0.720411        -2.295732        -0.663248
 H         1.274235        -0.719252         0.041783
 H         0.367402        -1.934335         1.042300
 H        -3.329916         0.964312        -1.104023
 H        -2.385819         3.018214        -0.744669
 H        -2.984838         1.131685         1.959233
 H        -4.410297         1.654481         1.038864
 H        -2.704762        -1.959579         2.264166
 H        -4.093599        -1.268909         3.363476
 H        -4.383111        -2.539058         2.183893
