19
Iteration:  4693charge 0 multiplicity 1
 C         0.567787        -1.313259        -0.701068
 C        -0.608624        -0.616797        -0.190113
 C        -1.554408         0.171305        -0.004690
 C        -2.765995         1.011819         0.115771
 O        -2.366677         2.468865         0.445250
 C        -3.660997         0.737607         1.335991
 C        -4.381527        -0.559921         1.409336
 C        -4.894776        -1.076881         2.762713
 O        -4.499275        -1.236905         0.427582
 H         1.597787        -0.907534        -0.351042
 H         0.521437        -2.422081        -0.552581
 H         0.609340        -1.169005        -1.806090
 H        -3.260866         1.031571        -0.821567
 H        -1.992207         2.663030        -0.444901
 H        -3.045643         1.122362         2.177714
 H        -4.480107         1.429999         1.393564
 H        -3.940977        -1.100974         3.367605
 H        -5.534025        -0.338441         3.261101
 H        -5.294721        -2.097431         2.599378
