19
Iteration:  1812
 C         0.598926        -1.230503        -0.136335
 C        -0.694989        -0.529344         0.073884
 C        -1.509040         0.298121         0.361944
 C        -2.694251         1.253486         0.273400
 O        -2.432881         2.677321         0.677738
 C        -3.906596         0.742817         1.163065
 C        -4.405167        -0.734069         0.962053
 C        -4.229122        -1.526961         2.131385
 O        -4.874895        -1.262554        -0.033254
 H         1.332391        -0.698998        -0.685217
 H         1.034686        -1.643537         0.796345
 H         0.368070        -2.271442        -0.565093
 H        -3.066980         1.344978        -0.751291
 H        -1.921529         2.636277         1.471392
 H        -3.536051         0.808588         2.230198
 H        -4.733743         1.538534         1.180561
 H        -3.421294        -1.379885         2.962870
 H        -5.102812        -1.467475         2.878654
 H        -4.220634        -2.600147         1.720448
