19
Iteration:  4757charge 0 multiplicity 1
 C         0.518164        -1.082649        -0.388698
 C        -0.693141        -0.291519        -0.686022
 C        -1.820449         0.116986        -0.379910
 C        -2.832129         0.998063         0.252425
 O        -2.224256         2.335036         0.333390
 C        -3.248851         0.500727         1.599885
 C        -4.357392        -0.696691         1.442683
 C        -5.208366        -0.817405         2.747959
 O        -4.363636        -1.363453         0.426102
 H         1.092363        -0.627911         0.463351
 H         0.141604        -2.089783        -0.071650
 H         1.075098        -1.247946        -1.338198
 H        -3.681957         1.018848        -0.553371
 H        -1.259663         2.238723        -0.034830
 H        -2.373534        -0.071148         2.030560
 H        -3.619588         1.244619         2.331077
 H        -4.644041        -1.012386         3.704104
 H        -5.826719        -0.000266         3.074326
 H        -6.042624        -1.560523         2.680628
