19
Iteration:  3991
 C         0.601240        -1.062425         0.325460
 C        -0.682310        -0.471821         0.237213
 C        -1.719153        -0.020628        -0.225609
 C        -2.859731         0.905379        -0.108349
 O        -2.165569         2.282505        -0.014667
 C        -3.603171         0.695203         1.156851
 C        -4.378456        -0.522172         1.285422
 C        -3.711324        -1.837973         1.652334
 O        -5.656044        -0.415002         1.232297
 H         1.105755        -1.070581        -0.641816
 H         1.209997        -0.453977         1.065870
 H         0.457261        -2.128318         0.788340
 H        -3.322295         0.928848        -1.009308
 H        -2.647810         2.893248        -0.501095
 H        -2.872669         0.720104         2.002260
 H        -4.207356         1.618639         1.161030
 H        -3.066342        -2.319489         0.818317
 H        -3.074744        -1.518067         2.493064
 H        -4.500478        -2.583475         1.994882
