19
Iteration:  3670
 C         0.426292        -1.117035         0.091321
 C        -0.882869        -0.581959        -0.211299
 C        -2.033804        -0.131063        -0.289767
 C        -2.901259         1.066553         0.010893
 O        -2.067797         2.327890         0.132958
 C        -3.650427         0.834807         1.396512
 C        -4.228993        -0.600393         1.338127
 C        -3.897037        -1.480291         2.479884
 O        -5.074036        -0.771572         0.435413
 H         0.451615        -2.037597        -0.534232
 H         1.182599        -0.411949        -0.248283
 H         0.506396        -1.331397         1.113387
 H        -3.670616         1.355956        -0.826817
 H        -1.561365         2.227309         1.014225
 H        -2.991418         1.069053         2.201206
 H        -4.476250         1.522831         1.364517
 H        -2.826704        -1.411400         2.657724
 H        -4.329097        -1.059856         3.455522
 H        -4.280352        -2.531555         2.413330
