19
Iteration:  4047charge 0 multiplicity 1
 C         0.832369        -1.260332         0.157376
 C        -0.512699        -0.577673         0.073820
 C        -1.427082         0.221615         0.276695
 C        -2.702258         0.907762         0.189949
 O        -2.409264         2.144813        -0.394080
 C        -3.700064         0.843153         1.483964
 C        -4.523898        -0.455329         1.279333
 C        -3.756534        -1.716971         1.501017
 O        -5.824060        -0.459503         1.122530
 H         1.388481        -1.212638        -0.755136
 H         1.247457        -0.670798         1.011529
 H         0.520061        -2.340007         0.420559
 H        -3.337570         0.385332        -0.505407
 H        -3.024321         2.900418        -0.202107
 H        -3.269620         0.876080         2.501281
 H        -4.295893         1.787985         1.369017
 H        -2.921312        -1.694372         0.676802
 H        -3.100634        -1.702933         2.402108
 H        -4.295731        -2.646839         1.405451
