19
Iteration:  1778
 C         0.445424        -1.243165        -0.142771
 C        -0.584613        -0.350439         0.256991
 C        -1.526499         0.408076         0.231617
 C        -2.732190         1.160815         0.277639
 O        -2.442049         2.605181         0.600000
 C        -3.873180         0.604722         1.212063
 C        -4.362630        -0.798510         1.004430
 C        -4.300298        -1.644086         2.277537
 O        -4.725036        -1.050691        -0.135695
 H         1.145944        -0.999454        -0.907587
 H         0.994204        -1.688039         0.727051
 H        -0.204746        -2.079933        -0.592935
 H        -3.061149         1.225256        -0.745735
 H        -1.906288         2.724969         1.436756
 H        -3.488495         0.974086         2.168516
 H        -4.862166         1.070763         0.933580
 H        -3.273688        -2.154019         2.447372
 H        -4.616633        -0.999564         3.129140
 H        -5.111027        -2.402867         2.069645
