19
Iteration:  3808
 C         0.295462        -1.611979        -0.124756
 C        -0.461546        -0.461515         0.271481
 C        -1.422878         0.289755         0.437987
 C        -2.708148         0.938818         0.223735
 O        -2.470216         2.400703        -0.245167
 C        -3.878595         0.909452         1.420516
 C        -4.393744        -0.462863         1.329945
 C        -3.532353        -1.498750         1.888687
 O        -5.427628        -0.756258         0.674598
 H        -0.069245        -1.884137        -1.102522
 H         1.401704        -1.498884        -0.254131
 H         0.245734        -2.523220         0.564500
 H        -3.242842         0.462512        -0.645215
 H        -3.209446         2.560384        -0.878387
 H        -3.445580         1.031243         2.448109
 H        -4.491273         1.797972         1.146351
 H        -2.713631        -1.756572         1.185683
 H        -3.036008        -1.127791         2.757643
 H        -4.140232        -2.407121         2.063959
