19
Iteration:  2567charge 0 multiplicity 1
 C         0.295796        -1.487046        -0.220987
 C        -0.860589        -0.685562         0.126686
 C        -1.594978         0.250701         0.100632
 C        -2.726323         1.163432         0.190085
 O        -2.408128         2.654704         0.415282
 C        -3.844182         0.874615         1.196581
 C        -4.289554        -0.574677         1.165120
 C        -3.816709        -1.469502         2.325201
 O        -4.978615        -1.083909         0.225505
 H         0.912023        -1.631919         0.699577
 H        -0.068690        -2.519152        -0.398292
 H         0.950376        -1.230549        -1.071192
 H        -3.133641         1.288944        -0.824318
 H        -1.783949         2.795447         1.089361
 H        -3.407524         1.201411         2.172614
 H        -4.715621         1.425055         0.950896
 H        -3.798260        -2.563390         2.083195
 H        -2.803541        -1.168269         2.603162
 H        -4.209697        -1.405259         3.350027
