19
Iteration:  1239
 C         1.422593        -0.333661        -0.239528
 C        -0.014834        -0.043646         0.185566
 C        -1.205595         0.220538         0.309885
 C        -2.622374         0.465192         0.170669
 O        -2.728935         1.977892         0.242960
 C        -3.428394         0.096816         1.418510
 C        -4.754567        -0.595770         1.178512
 C        -5.546388        -1.278630         2.410717
 O        -5.112427        -0.827929         0.018610
 H         1.924140         0.177025        -1.121591
 H         2.089836        -0.032846         0.597970
 H         1.527967        -1.423393        -0.317582
 H        -2.876172         0.143730        -0.800289
 H        -2.039201         2.446548        -0.317234
 H        -2.932234        -0.420307         2.270778
 H        -3.670230         1.109575         1.733958
 H        -6.666671        -1.339390         2.497837
 H        -5.282871        -2.294433         2.251913
 H        -5.102860        -0.962177         3.312797
