19
Iteration:  2963charge 0 multiplicity 1
 C         0.664763        -1.238560        -0.594138
 C        -0.443999        -0.344695        -0.303655
 C        -1.445769         0.317529        -0.024753
 C        -2.712157         0.973327         0.180699
 O        -2.486700         2.381039         0.256246
 C        -3.412092         0.438200         1.518876
 C        -4.447281        -0.656139         1.392286
 C        -4.978184        -1.071490         2.706315
 O        -4.827733        -1.082869         0.334777
 H         0.748592        -1.785069         0.365076
 H         0.491043        -1.945327        -1.417336
 H         1.647757        -0.826380        -0.812671
 H        -3.414809         0.780670        -0.724979
 H        -1.611560         2.490823         0.673538
 H        -2.643749         0.144027         2.301708
 H        -3.718056         1.306968         2.067434
 H        -4.897739        -0.474983         3.591944
 H        -6.030173        -1.273625         2.526316
 H        -4.514282        -2.022803         2.965532
