19
Iteration:  3483
 C         0.388735        -1.435232        -0.114277
 C        -0.773578        -0.512693        -0.267455
 C        -1.809510         0.101242        -0.251890
 C        -2.879522         1.102560         0.053652
 O        -2.432720         2.425688         0.323464
 C        -3.502860         0.788585         1.497504
 C        -4.215482        -0.539549         1.383063
 C        -4.424776        -1.413740         2.611278
 O        -4.581908        -0.901914         0.237469
 H         0.182574        -2.533139        -0.009263
 H         1.176021        -1.383387        -0.912439
 H         0.889971        -1.048049         0.785406
 H        -3.691690         1.081948        -0.729805
 H        -1.595232         2.694129        -0.218450
 H        -2.610189         0.847003         2.085868
 H        -4.217188         1.579389         1.767444
 H        -3.522036        -1.325015         3.294171
 H        -5.233095        -0.775604         3.147866
 H        -4.810859        -2.427511         2.371508
