19
Iteration:  4526
 C         0.233530        -1.487192         0.245567
 C        -0.845015        -0.497132        -0.172364
 C        -1.779197         0.318540        -0.353981
 C        -2.917684         1.191163         0.023583
 O        -2.355607         2.545641         0.149762
 C        -3.560787         0.754889         1.314579
 C        -4.179942        -0.606116         1.333197
 C        -3.858625        -1.689727         2.386609
 O        -4.991602        -0.798084         0.479898
 H         1.233474        -1.248042         0.583698
 H        -0.247641        -2.138527         1.040006
 H         0.348252        -2.300641        -0.587799
 H        -3.567638         1.230343        -0.784820
 H        -1.343363         2.572136         0.311085
 H        -2.771197         0.833577         2.034424
 H        -4.293406         1.463110         1.671393
 H        -2.832797        -2.092846         2.197137
 H        -3.781074        -1.334394         3.434296
 H        -4.582477        -2.555112         2.196857
