19
Iteration:  4760charge 0 multiplicity 1
 C         0.516371        -1.089827        -0.388472
 C        -0.705854        -0.265061        -0.703085
 C        -1.817966         0.094158        -0.391013
 C        -2.838828         0.975390         0.253197
 O        -2.223105         2.349166         0.334267
 C        -3.219398         0.485050         1.577513
 C        -4.353151        -0.700224         1.489932
 C        -5.262001        -0.804808         2.737241
 O        -4.356164        -1.360884         0.417444
 H         1.138591        -0.588254         0.485339
 H         0.126289        -2.079336        -0.063786
 H         1.149232        -1.246902        -1.264143
 H        -3.688741         1.059222        -0.399917
 H        -1.309539         2.248910         0.056016
 H        -2.314836         0.007495         2.043720
 H        -3.480220         1.261121         2.245078
 H        -4.645468        -1.005216         3.634496
 H        -5.796149         0.052210         3.135634
 H        -5.994399        -1.690832         2.692074
