19
Iteration:  2167
 C         0.759700        -1.106146         0.231574
 C        -0.526568        -0.401815         0.107126
 C        -1.578048         0.189137        -0.006478
 C        -2.691901         1.083763         0.093474
 O        -2.147265         2.397282         0.402325
 C        -3.855086         0.749489         1.123666
 C        -4.607042        -0.654059         1.131729
 C        -3.822814        -1.743851         1.742892
 O        -5.719789        -0.826251         0.637128
 H         1.520275        -0.464611         0.782602
 H         0.578527        -1.990917         0.870870
 H         1.194064        -1.512026        -0.705820
 H        -3.394388         1.075750        -0.801975
 H        -1.426875         2.184995         0.987696
 H        -3.681005         1.006393         2.175897
 H        -4.630549         1.388320         0.710205
 H        -3.343573        -1.292496         2.672080
 H        -4.340223        -2.681891         2.097081
 H        -3.044771        -2.055904         1.011710
