19
Iteration:  1062charge 0 multiplicity 1
 C         1.494221         0.019088         0.298007
 C         0.079683         0.103807         0.267987
 C        -1.075638         0.396210         0.073161
 C        -2.531365         0.156228        -0.108220
 O        -3.113529         1.485513         0.250494
 C        -3.214893        -0.906550         0.866060
 C        -4.723261        -0.694727         1.104496
 C        -5.204787        -0.525615         2.646462
 O        -5.465257        -0.340348         0.158550
 H         1.753967         0.813264        -0.478254
 H         2.029147         0.251366         1.230061
 H         1.941409        -0.898995        -0.087720
 H        -2.585827        -0.220079        -1.141744
 H        -4.090399         1.530135         0.241390
 H        -3.007394        -1.930965         0.498525
 H        -2.850142        -0.815582         1.897863
 H        -4.492146        -0.009073         3.257634
 H        -6.171683         0.032983         2.653045
 H        -5.450361        -1.482312         3.109362
