19
Iteration:  3482
 C         0.390782        -1.433858        -0.107508
 C        -0.775791        -0.519695        -0.281294
 C        -1.816588         0.102165        -0.252946
 C        -2.875229         1.104566         0.054590
 O        -2.423555         2.426238         0.323901
 C        -3.508058         0.792232         1.500255
 C        -4.198817        -0.541346         1.385639
 C        -4.432277        -1.411535         2.616164
 O        -4.583593        -0.903061         0.230115
 H         0.183687        -2.499754        -0.009998
 H         1.160534        -1.356147        -0.899039
 H         0.874090        -1.010033         0.771782
 H        -3.710108         1.075883        -0.733448
 H        -1.599793         2.673084        -0.229440
 H        -2.621084         0.848021         2.125369
 H        -4.256663         1.515018         1.770808
 H        -3.544526        -1.318068         3.303328
 H        -5.227208        -0.806120         3.173303
 H        -4.821466        -2.418789         2.383375
