19
Iteration:  2970charge 0 multiplicity 1
 C         0.663786        -1.258776        -0.581924
 C        -0.379130        -0.264499        -0.346560
 C        -1.419987         0.258173        -0.043417
 C        -2.713186         0.923154         0.257041
 O        -2.530619         2.360113         0.257205
 C        -3.415059         0.495761         1.505035
 C        -4.456062        -0.598149         1.386230
 C        -5.012045        -1.059404         2.683359
 O        -4.795220        -1.093357         0.335059
 H         0.728420        -1.930751         0.268129
 H         0.208854        -1.853394        -1.384273
 H         1.664332        -0.948352        -0.827980
 H        -3.433781         0.708538        -0.493843
 H        -1.638135         2.506861         0.754272
 H        -2.711769        -0.021865         2.180307
 H        -3.826814         1.401776         2.003028
 H        -4.710711        -0.505169         3.639655
 H        -6.074132        -1.364521         2.659218
 H        -4.481009        -2.030651         2.907404
