19
Iteration:   297charge 0 multiplicity 1
 C         1.366630        -0.483007        -0.026513
 C        -0.011650        -0.262259         0.149224
 C        -1.122209         0.209684         0.027789
 C        -2.554628         0.506251         0.083421
 O        -2.957409         1.909548        -0.030372
 C        -3.256471        -0.093111         1.497777
 C        -4.670207        -0.530950         1.300829
 C        -5.177734        -1.760954         1.878334
 O        -5.504132         0.148915         0.742245
 H         1.859556         0.046980         0.760205
 H         1.686714        -1.517768        -0.022121
 H         1.637529         0.099054        -0.940552
 H        -3.134155        -0.015741        -0.721712
 H        -2.112857         2.309509         0.116304
 H        -2.698910        -0.907761         1.700930
 H        -3.070373         0.728831         2.269705
 H        -4.643399        -2.105981         2.739490
 H        -6.271544        -1.720687         2.084783
 H        -5.055321        -2.670166         1.211421
