19
Iteration:  4000charge 0 multiplicity 1
 C         0.660498        -1.085430         0.335091
 C        -0.658528        -0.507814         0.208704
 C        -1.749807        -0.081580        -0.109184
 C        -2.791071         0.895775        -0.144538
 O        -2.260371         2.230278        -0.006086
 C        -3.640954         0.815550         1.189847
 C        -4.414606        -0.500695         1.310395
 C        -3.696095        -1.801850         1.575999
 O        -5.588337        -0.405228         1.206184
 H         1.025157        -1.037417        -0.707004
 H         1.295119        -0.460773         0.977354
 H         0.617677        -2.149065         0.594994
 H        -3.511108         0.801151        -0.955579
 H        -2.854094         2.823326        -0.394053
 H        -2.802419         0.931252         1.906959
 H        -4.329947         1.645684         1.347551
 H        -3.028377        -2.200393         0.889426
 H        -3.119676        -1.674980         2.461723
 H        -4.523811        -2.494627         1.816168
