19
Iteration:  4727charge 0 multiplicity 1
 C         0.566196        -1.158698        -0.535498
 C        -0.729516        -0.522770        -0.352033
 C        -1.745018         0.180619        -0.277711
 C        -2.825515         1.051230         0.150397
 O        -2.249533         2.419264         0.413967
 C        -3.372002         0.625626         1.460678
 C        -4.295477        -0.630479         1.427209
 C        -5.064350        -0.929954         2.755558
 O        -4.496958        -1.384579         0.433743
 H         1.411064        -0.690648         0.140449
 H         0.564223        -2.245012        -0.297713
 H         0.805428        -1.077268        -1.596589
 H        -3.525859         1.037915        -0.629856
 H        -1.649797         2.455734        -0.301846
 H        -2.491983         0.567021         2.135864
 H        -4.100433         1.336984         1.744942
 H        -4.266285        -1.221811         3.464016
 H        -5.716444        -0.117552         3.145243
 H        -5.754471        -1.820906         2.601185
