19
Iteration:  1117
 C         1.502668        -0.053476         0.244229
 C         0.069100         0.115044         0.024812
 C        -1.145711         0.259366         0.106447
 C        -2.667314         0.234581        -0.032605
 O        -3.058011         1.605506         0.189147
 C        -3.215281        -0.640530         1.189903
 C        -4.730743        -0.611547         1.163293
 C        -5.345480        -0.862392         2.541995
 O        -5.326308        -0.398119         0.115524
 H         2.179314         0.570387        -0.442540
 H         1.719908         0.245364         1.285018
 H         1.773712        -1.098208         0.098799
 H        -2.960047        -0.227024        -0.951990
 H        -2.565651         2.220254        -0.294979
 H        -2.690692        -1.609139         1.335527
 H        -3.024546        -0.022395         2.057903
 H        -4.774883        -0.098162         3.089321
 H        -6.397780        -0.627787         2.649696
 H        -5.018903        -1.790523         2.936247
