19
Iteration:  3759charge 0 multiplicity 1
 C         0.431770        -1.495937        -0.002967
 C        -0.700264        -0.629528        -0.021672
 C        -1.530107         0.244099         0.196045
 C        -2.712511         1.118154        -0.023964
 O        -2.448725         2.443166         0.088432
 C        -3.679102         0.823415         1.113686
 C        -4.323812        -0.520428         1.285888
 C        -3.766945        -1.553430         2.249013
 O        -5.367007        -0.773729         0.756568
 H         0.493680        -2.192148        -0.903846
 H         1.419004        -1.041444        -0.005462
 H         0.533167        -2.082570         0.874597
 H        -3.087958         0.946696        -1.146087
 H        -2.704244         2.873830        -0.782750
 H        -3.101323         1.007244         2.011500
 H        -4.502589         1.529690         1.086280
 H        -2.683630        -1.790140         1.994234
 H        -3.801033        -1.216060         3.342578
 H        -4.434285        -2.388360         1.982591
