19
Iteration:  4354charge 0 multiplicity 1
 C         0.661662        -1.326529        -0.100331
 C        -0.514183        -0.517035         0.266529
 C        -1.453311         0.248007         0.332819
 C        -2.613083         1.011442         0.025507
 O        -2.398448         2.425362        -0.091164
 C        -3.788285         0.813191         1.024095
 C        -4.406748        -0.611837         1.249682
 C        -3.924821        -1.855150         1.906541
 O        -5.643485        -0.517276         1.056996
 H         1.568517        -0.799276        -0.419629
 H         0.960017        -1.927308         0.756539
 H         0.406390        -2.051838        -0.883486
 H        -2.982028         0.679594        -0.883703
 H        -1.510676         2.652908         0.026491
 H        -3.565710         1.201627         2.082986
 H        -4.621709         1.426829         0.672733
 H        -3.069875        -2.361500         1.442616
 H        -3.530229        -1.770377         2.899017
 H        -4.819426        -2.519816         1.928636
