19
Iteration:   407
 C         1.171760        -0.666862        -0.109386
 C        -0.151693        -0.186444         0.018662
 C        -1.271969         0.255834         0.021867
 C        -2.617412         0.686215         0.228253
 O        -2.732324         2.194743         0.495462
 C        -3.228092        -0.059180         1.383274
 C        -4.595636        -0.645927         1.146253
 C        -5.203624        -1.528763         2.233469
 O        -5.273836        -0.396929         0.147538
 H         1.926385        -0.231024         0.536692
 H         1.140655        -1.745476         0.122414
 H         1.630735        -0.506555        -1.106021
 H        -3.338878         0.569151        -0.550061
 H        -2.744975         2.612469        -0.414449
 H        -2.645819        -0.866973         1.715347
 H        -3.282032         0.522332         2.341413
 H        -5.439821        -0.917238         3.109365
 H        -6.185549        -1.903530         1.935854
 H        -4.486589        -2.357541         2.463752
