19
Iteration:     1charge 0 multiplicity 1
 C         1.502847         0.188368         0.021816
 C         0.057570         0.018033         0.043637
 C        -1.137415        -0.133626         0.049220
 C        -2.594684        -0.265514         0.082003
 O        -3.243013         0.678035        -0.771297
 C        -3.128769        -0.164153         1.526809
 C        -4.654986        -0.135539         1.613861
 C        -5.420174        -1.185260         0.830267
 O        -5.216407         0.689643         2.295413
 H         1.912233         0.253466         1.035720
 H         1.993822        -0.649854        -0.484258
 H         1.782401         1.105151        -0.508627
 H        -2.876299        -1.239840        -0.334288
 H        -2.927047         1.555783        -0.527887
 H        -2.758696        -1.023668         2.101382
 H        -2.751092         0.741488         2.009422
 H        -4.988512        -2.182948         0.965351
 H        -6.465260        -1.183620         1.141688
 H        -5.361613        -0.942624        -0.236479
