19
Iteration:  1236charge 0 multiplicity 1
 C         1.411919        -0.315617        -0.210442
 C         0.002670        -0.054311         0.169663
 C        -1.180335         0.192562         0.306870
 C        -2.626332         0.461568         0.182898
 O        -2.743087         1.975505         0.231221
 C        -3.438243         0.097868         1.404139
 C        -4.764477        -0.603440         1.182341
 C        -5.549185        -1.273754         2.406614
 O        -5.123545        -0.815785         0.014045
 H         1.849323         0.186336        -1.104536
 H         2.114112        -0.009723         0.559190
 H         1.592146        -1.369870        -0.366546
 H        -2.881477         0.166208        -0.827333
 H        -1.964649         2.457993        -0.212696
 H        -2.842749        -0.382254         2.176483
 H        -3.596629         1.107010         1.821222
 H        -6.631435        -1.273871         2.612578
 H        -5.262249        -2.330134         2.276519
 H        -5.070042        -0.992847         3.340103
