19
Iteration:   716charge 0 multiplicity 1
 C         1.310754        -0.364424        -0.481590
 C        -0.032807         0.065944        -0.144930
 C        -1.214254         0.244358         0.126840
 C        -2.596001         0.556537         0.501259
 O        -2.669441         1.954229         0.986253
 C        -3.245302        -0.409250         1.512834
 C        -4.626094        -0.701524         1.057382
 C        -5.827564        -0.288426         1.921999
 O        -4.952985        -1.396573         0.078311
 H         2.108151         0.444427        -0.506553
 H         1.502838        -1.162242         0.274968
 H         1.270845        -0.787018        -1.489888
 H        -3.192956         0.639694        -0.449631
 H        -3.005000         2.494953         0.202072
 H        -2.753796        -1.371308         1.849341
 H        -3.204724         0.223960         2.431924
 H        -5.530994         0.707066         2.277842
 H        -6.726820        -0.152047         1.351186
 H        -5.997464        -1.051724         2.628577
