19
Iteration:  1641
 C         0.437668        -1.228138         0.127574
 C        -0.587385        -0.194990        -0.056606
 C        -1.537686         0.596184         0.044261
 C        -2.811072         1.110850         0.222889
 O        -2.480685         2.601900         0.558102
 C        -3.606192         0.490022         1.383601
 C        -4.329181        -0.836274         1.015976
 C        -4.658231        -1.742630         2.264689
 O        -4.525639        -1.065994        -0.142198
 H         1.301922        -1.195048        -0.651051
 H         0.746804        -1.060583         1.169890
 H        -0.157092        -2.135215         0.147282
 H        -3.449204         1.217811        -0.663915
 H        -1.851866         2.602885         1.244334
 H        -2.960221         0.591488         2.280622
 H        -4.435181         1.226988         1.609764
 H        -5.570187        -2.304810         2.164259
 H        -3.930373        -2.540566         2.375435
 H        -4.746627        -1.123268         3.129240
