19
Iteration:  1558charge 0 multiplicity 1
 C         0.676897        -0.973902        -0.129451
 C        -0.515700        -0.290719         0.190430
 C        -1.525405         0.289767         0.298918
 C        -2.762073         0.986178         0.272271
 O        -2.483093         2.404104         0.690532
 C        -3.817562         0.598519         1.281331
 C        -4.331459        -0.741710         0.970620
 C        -4.755400        -1.459264         2.173151
 O        -4.611166        -1.197042        -0.092113
 H         0.851608        -0.447746        -1.044667
 H         1.607104        -0.849901         0.437328
 H         0.579814        -1.998100        -0.495940
 H        -3.068540         1.029031        -0.835789
 H        -1.988608         3.114593         0.139116
 H        -3.398455         0.778870         2.265099
 H        -4.663982         1.240030         1.073188
 H        -5.553225        -0.944944         2.712887
 H        -4.902859        -2.574228         2.071100
 H        -3.850410        -1.396244         2.932398
