19
Iteration:  2588
 C         0.248785        -1.590023        -0.161872
 C        -0.773148        -0.547532         0.151426
 C        -1.679020         0.312782        -0.002682
 C        -2.808725         1.282088         0.068985
 O        -2.425795         2.534922         0.469076
 C        -3.755989         0.796754         1.197092
 C        -4.231917        -0.566760         1.130842
 C        -3.821357        -1.451540         2.396308
 O        -4.945785        -1.055782         0.231121
 H         0.963996        -1.687518         0.701678
 H        -0.153102        -2.597174        -0.490728
 H         0.877097        -1.201870        -1.039010
 H        -3.418980         1.380980        -0.886812
 H        -1.725764         2.469087         1.219146
 H        -3.075630         0.840367         2.098716
 H        -4.502784         1.528444         1.051916
 H        -3.526383        -2.501693         2.195824
 H        -3.179512        -0.991737         3.113716
 H        -4.738898        -1.543629         2.977520
