19
Iteration:  4730charge 0 multiplicity 1
 C         0.570151        -1.157275        -0.520992
 C        -0.747835        -0.485390        -0.382175
 C        -1.742274         0.194109        -0.284187
 C        -2.847965         1.036345         0.182563
 O        -2.234435         2.402062         0.398293
 C        -3.361487         0.590281         1.464880
 C        -4.311940        -0.675799         1.449334
 C        -5.058267        -0.899206         2.701399
 O        -4.484186        -1.370275         0.454756
 H         1.264667        -0.686125         0.151190
 H         0.548165        -2.198611        -0.251708
 H         0.859064        -1.089594        -1.552739
 H        -3.598745         1.077432        -0.594629
 H        -1.534848         2.465474        -0.350028
 H        -2.534827         0.474684         2.153963
 H        -4.039133         1.413319         1.780830
 H        -4.268457        -1.158057         3.384197
 H        -5.709325        -0.137744         3.189855
 H        -5.749140        -1.741261         2.621879
