19
Iteration:  3116charge 0 multiplicity 1
 C         0.739611        -1.084380        -0.577314
 C        -0.491084        -0.326662        -0.610953
 C        -1.564947         0.172100        -0.189883
 C        -2.689377         1.023456         0.200305
 O        -2.176815         2.338877         0.342895
 C        -3.580337         0.603910         1.473235
 C        -4.505711        -0.604662         1.465497
 C        -5.210823        -1.060656         2.806245
 O        -4.681188        -1.352413         0.466208
 H         0.936395        -1.801900         0.226432
 H         0.913989        -1.646848        -1.478745
 H         1.518431        -0.355953        -0.487457
 H        -3.422463         1.180922        -0.647316
 H        -1.312260         2.204860         0.630379
 H        -3.008125         0.273051         2.434336
 H        -4.082756         1.511975         1.707892
 H        -4.819023        -0.666132         3.771013
 H        -6.321688        -0.818409         2.723246
 H        -5.299468        -2.173045         2.871198
