19
Iteration:  1052
 C         1.502907         0.070601         0.290523
 C         0.066710         0.096219         0.229716
 C        -1.143230         0.329743         0.165020
 C        -2.550845         0.241407        -0.099767
 O        -3.047132         1.413726         0.216013
 C        -3.207383        -0.914041         0.846824
 C        -4.772609        -0.644540         1.095512
 C        -5.177096        -0.538582         2.625468
 O        -5.464253        -0.358282         0.157523
 H         2.012948         0.891381        -0.337010
 H         1.796320         0.280420         1.335319
 H         1.822960        -0.912181        -0.020581
 H        -3.015000         0.084839        -1.109066
 H        -3.986266         1.142846         0.503812
 H        -2.947027        -1.926399         0.438535
 H        -2.686224        -0.900382         1.812786
 H        -4.325764         0.051606         3.059975
 H        -6.027819         0.198097         2.662030
 H        -5.380215        -1.315974         3.334319
