19
Iteration:   195charge 0 multiplicity 1
 C         1.611526        -0.131182         0.051967
 C         0.091574        -0.104838         0.070472
 C        -1.139605         0.054093         0.018576
 C        -2.611592         0.162919        -0.005952
 O        -2.995553         1.568285        -0.313778
 C        -3.186640        -0.385626         1.368712
 C        -4.756030        -0.429197         1.406829
 C        -5.446372        -1.675485         1.704713
 O        -5.365819         0.613445         1.256829
 H         1.942081         0.311992         1.052779
 H         2.118764        -1.128856        -0.075443
 H         1.957234         0.596630        -0.717759
 H        -3.180450        -0.480086        -0.784665
 H        -3.637787         1.765155         0.347564
 H        -2.743299        -1.458053         1.403217
 H        -2.806139         0.130952         2.269710
 H        -5.313291        -1.967223         2.846695
 H        -6.540698        -1.757937         1.572387
 H        -5.059656        -2.591285         1.136125
