19
Iteration:  1543charge 0 multiplicity 1
 C         0.808212        -0.929323        -0.240940
 C        -0.488976        -0.300789         0.204848
 C        -1.611873         0.117755         0.374268
 C        -2.783746         1.113823         0.310523
 O        -2.466420         2.440899         0.624660
 C        -3.867999         0.660837         1.278213
 C        -4.413247        -0.754827         0.993042
 C        -4.775025        -1.531075         2.255660
 O        -4.536134        -1.172202        -0.144636
 H         1.325743        -0.574319        -1.188583
 H         1.490019        -0.749508         0.594221
 H         0.542654        -1.971681        -0.331442
 H        -3.248577         1.041942        -0.631899
 H        -1.817892         2.596525        -0.029221
 H        -3.484518         0.695180         2.318831
 H        -4.725511         1.388812         1.215260
 H        -5.439173        -0.907249         2.944970
 H        -5.337079        -2.404266         1.890738
 H        -3.934041        -1.755510         2.940982
