19
Iteration:  3179
 C         0.584687        -1.062858        -0.577778
 C        -0.585272        -0.302117        -0.290795
 C        -1.732777         0.115981        -0.243180
 C        -2.833080         0.942583         0.122314
 O        -2.249998         2.258108         0.629248
 C        -3.445540         0.459433         1.403326
 C        -4.323587        -0.717518         1.298249
 C        -5.039489        -0.716096         2.680199
 O        -4.560703        -1.394587         0.401026
 H         0.796885        -1.930779         0.100212
 H         0.431447        -1.323648        -1.655231
 H         1.346271        -0.287028        -0.667214
 H        -3.648444         1.033222        -0.540287
 H        -1.422397         2.303906         0.192643
 H        -2.784230         0.506846         2.217198
 H        -4.117764         1.335395         1.655597
 H        -4.299172        -0.415126         3.430618
 H        -5.673591         0.157700         2.499854
 H        -5.414174        -1.676374         3.089775
