19
Iteration:   330
 C         1.300573        -0.598440        -0.026619
 C        -0.011407        -0.047196         0.015719
 C        -1.210158         0.136640         0.141284
 C        -2.617073         0.530787         0.135150
 O        -2.769968         1.991595         0.175192
 C        -3.344359        -0.118850         1.381416
 C        -4.755393        -0.564868         1.256508
 C        -5.037347        -1.767792         2.052967
 O        -5.454637         0.105592         0.513544
 H         1.855720        -0.199988         0.798799
 H         1.359560        -1.687117         0.034112
 H         1.817706        -0.387617        -0.983907
 H        -3.154679         0.221555        -0.770509
 H        -3.302087         2.338863        -0.575045
 H        -2.797287        -0.885823         1.827568
 H        -3.307551         0.689825         2.178720
 H        -4.622068        -1.689181         3.048531
 H        -6.084010        -2.112728         1.985773
 H        -4.363180        -2.473010         1.478725
