19
Iteration:   872
 C         1.555498         0.029666         0.086145
 C         0.102496         0.060764         0.087855
 C        -1.106244         0.208483         0.016934
 C        -2.547047         0.295623         0.079780
 O        -2.880333         1.501842         0.803680
 C        -3.328312        -0.755416         0.826837
 C        -4.846902        -0.693683         1.092393
 C        -5.251898        -0.043116         2.408324
 O        -5.557326        -0.999043         0.107156
 H         1.980430         1.014657        -0.180168
 H         1.946548        -0.203563         1.124085
 H         1.958743        -0.781264        -0.597276
 H        -2.881066         0.557557        -0.963653
 H        -3.064366         2.330368         0.193998
 H        -3.174289        -1.687409         0.237452
 H        -2.838217        -0.804972         1.819503
 H        -5.359822         1.013033         2.252117
 H        -6.262441        -0.325746         2.710428
 H        -4.533355        -0.245511         3.168641
