19
Iteration:  2771charge 0 multiplicity 1
 C         0.338208        -1.518042        -0.354821
 C        -0.536340        -0.418779        -0.136256
 C        -1.475304         0.309384         0.111520
 C        -2.654825         1.104805         0.254759
 O        -2.481440         2.551695         0.138008
 C        -3.627079         0.717613         1.386780
 C        -4.427822        -0.567214         1.326873
 C        -4.373397        -1.556819         2.517683
 O        -4.860221        -0.892592         0.307026
 H         0.699954        -1.941899         0.547810
 H        -0.225905        -2.286349        -0.886751
 H         1.193522        -1.351004        -1.010649
 H        -3.206356         0.859282        -0.657543
 H        -2.000517         2.823025         0.893519
 H        -3.067663         0.795005         2.329164
 H        -4.335302         1.557522         1.498242
 H        -4.500410        -1.274071         3.620301
 H        -4.984988        -2.482368         2.394069
 H        -3.299516        -1.896499         2.374196
