19
Iteration:  4110
 C         0.707916        -1.232630         0.048955
 C        -0.309069        -0.341482         0.484145
 C        -1.240713         0.384736         0.219363
 C        -2.594077         0.809810         0.016533
 O        -2.650718         2.197207        -0.325563
 C        -3.545208         0.679693         1.317374
 C        -4.479105        -0.546788         1.278063
 C        -4.074203        -1.972773         1.602392
 O        -5.679132        -0.223044         1.186481
 H         1.085068        -0.979214        -0.930057
 H         1.616517        -1.375432         0.678485
 H         0.307774        -2.257742        -0.123987
 H        -3.094694         0.162621        -0.870588
 H        -3.110217         2.223815        -1.253413
 H        -3.103383         0.745648         2.336014
 H        -4.256453         1.543788         1.193186
 H        -3.325362        -2.315310         0.982039
 H        -3.755723        -1.915387         2.609394
 H        -4.967473        -2.570994         1.544643
