19
Iteration:  2954
 C         0.670225        -1.221877        -0.564013
 C        -0.551071        -0.440509        -0.271026
 C        -1.451266         0.335658        -0.039679
 C        -2.716744         1.022143         0.135941
 O        -2.443115         2.436686         0.255235
 C        -3.334386         0.408619         1.508600
 C        -4.392468        -0.643838         1.420378
 C        -4.998261        -1.150269         2.769295
 O        -4.881648        -1.090711         0.307990
 H         1.055561        -1.830217         0.317615
 H         0.656787        -1.979971        -1.387838
 H         1.431752        -0.374676        -0.728573
 H        -3.341537         0.902537        -0.812452
 H        -1.516772         2.526743         0.571909
 H        -2.479729         0.128586         2.141437
 H        -4.026189         1.214265         1.935322
 H        -4.945844        -0.263982         3.352275
 H        -6.049261        -1.298389         2.511153
 H        -4.572680        -2.099545         3.077602
