19
Iteration:  1855charge 0 multiplicity 1
 C         0.551662        -1.225409        -0.023158
 C        -0.594026        -0.301351         0.134794
 C        -1.673732         0.213210         0.172860
 C        -2.798726         1.174911         0.198756
 O        -2.237551         2.417815         0.679514
 C        -4.150283         0.781733         1.157474
 C        -4.379883        -0.603882         1.020717
 C        -4.068777        -1.690338         2.198243
 O        -4.869139        -1.042235        -0.000869
 H         1.357136        -0.694126        -0.537711
 H         0.995712        -1.600042         0.932953
 H         0.384324        -2.112995        -0.739983
 H        -3.087066         1.265087        -0.827375
 H        -1.765938         2.227310         1.444176
 H        -3.886995         1.160313         2.157364
 H        -5.127103         1.142207         0.711203
 H        -3.900240        -0.992608         3.060931
 H        -5.000768        -2.230683         2.339057
 H        -3.169535        -2.173130         1.795089
