19
Iteration:  2972charge 0 multiplicity 1
 C         0.661457        -1.270304        -0.578729
 C        -0.353217        -0.237276        -0.360416
 C        -1.418301         0.238333        -0.049857
 C        -2.707572         0.908011         0.285578
 O        -2.541811         2.354856         0.259712
 C        -3.412216         0.516995         1.507523
 C        -4.452590        -0.560149         1.399235
 C        -5.025000        -1.068160         2.690222
 O        -4.789078        -1.104187         0.320368
 H         0.738696        -1.991993         0.226682
 H         0.151912        -1.819250        -1.358923
 H         1.627571        -0.958654        -0.833701
 H        -3.474839         0.678346        -0.510637
 H        -1.711347         2.515263         0.741580
 H        -2.696129        -0.067482         2.161220
 H        -3.879404         1.367502         1.943855
 H        -4.681905        -0.474129         3.566694
 H        -6.072130        -1.369426         2.708064
 H        -4.485899        -2.034026         2.851821
