19
Iteration:  3576charge 0 multiplicity 1
 C         0.271875        -1.635850        -0.359081
 C        -0.433321        -0.412152         0.016515
 C        -1.299049         0.388201         0.227528
 C        -2.670557         0.960000         0.145050
 O        -2.637552         2.450037         0.127906
 C        -3.697764         0.906386         1.354381
 C        -4.418468        -0.482125         1.389617
 C        -4.208796        -1.415169         2.565727
 O        -4.912150        -0.978025         0.264597
 H        -0.508477        -2.369729        -0.730422
 H         0.888063        -1.363491        -1.241552
 H         0.936075        -1.915809         0.528410
 H        -3.043299         0.573904        -0.759148
 H        -2.178520         2.664062        -0.635595
 H        -3.266373         1.035083         2.388416
 H        -4.508046         1.684189         1.127757
 H        -3.320527        -2.015111         2.313744
 H        -4.025618        -1.166209         3.621278
 H        -4.978676        -2.194591         2.544514
