19
Iteration:   916charge 0 multiplicity 1
 C         1.389348         0.226750         0.307625
 C         0.016571         0.014226         0.022286
 C        -1.185956         0.039653        -0.034731
 C        -2.589168         0.313052         0.020876
 O        -2.703065         1.526501         0.614694
 C        -3.273302        -0.940546         0.764292
 C        -4.713619        -0.676611         1.048506
 C        -5.149996        -0.152189         2.395471
 O        -5.614183        -0.749320         0.249904
 H         1.756192         1.224811         0.059544
 H         1.546954         0.134034         1.421885
 H         2.022449        -0.600659        -0.149502
 H        -3.143337         0.234986        -0.953550
 H        -3.518260         1.551133         1.250306
 H        -3.234761        -1.781672         0.057223
 H        -2.777321        -1.099987         1.755632
 H        -5.096260         0.876690         2.120673
 H        -6.186107        -0.368818         2.564664
 H        -4.511176        -0.346212         3.253328
