19
Iteration:  3940
 C         0.491564        -1.176055         0.511339
 C        -0.547495        -0.536900        -0.290149
 C        -1.587277         0.114956        -0.315749
 C        -2.731181         1.054674        -0.080542
 O        -2.186589         2.447117         0.035229
 C        -3.572220         0.756334         1.139551
 C        -4.460113        -0.618631         1.332711
 C        -3.856564        -1.841435         1.877687
 O        -5.621397        -0.633285         1.228743
 H         1.255322        -1.549942        -0.146981
 H         0.985285        -0.444226         1.173094
 H         0.062551        -1.988460         1.132595
 H        -3.347714         1.076242        -1.083354
 H        -2.638088         3.022683        -0.580948
 H        -2.918127         0.887109         2.003258
 H        -4.280796         1.598877         1.011454
 H        -3.653820        -2.359182         0.898732
 H        -2.951221        -1.749666         2.496796
 H        -4.716308        -2.357476         2.300505
