19
Iteration:  1460
 C         0.846636        -0.821893        -0.059166
 C        -0.455452        -0.253357         0.127019
 C        -1.581847         0.251160         0.051500
 C        -2.813579         0.974395         0.312878
 O        -2.491222         2.485182         0.393729
 C        -3.617662         0.443046         1.479065
 C        -4.475116        -0.773788         1.052668
 C        -5.047799        -1.456238         2.241177
 O        -4.465425        -1.166628        -0.090067
 H         1.148589        -0.392979        -1.013325
 H         1.610669        -0.676351         0.748166
 H         0.909804        -1.940879        -0.178106
 H        -3.560426         0.758032        -0.561961
 H        -2.198727         2.733852         1.351519
 H        -2.941800         0.109117         2.286117
 H        -4.251112         1.235185         1.896458
 H        -4.558164        -1.336704         3.179400
 H        -6.102793        -1.266109         2.514308
 H        -5.268144        -2.498838         1.948871
