19
Iteration:  3699
 C         0.363756        -1.147963         0.176374
 C        -0.788116        -0.471549        -0.228595
 C        -1.873552         0.056793        -0.318730
 C        -2.917619         1.041218        -0.068577
 O        -2.112246         2.232570         0.212245
 C        -3.587301         0.814590         1.317361
 C        -4.358987        -0.543237         1.342968
 C        -3.831964        -1.435006         2.406453
 O        -5.231661        -0.862750         0.555976
 H         0.277835        -1.967648        -0.509925
 H         1.277480        -0.555994        -0.024236
 H         0.261499        -1.641605         1.201465
 H        -3.565792         1.304828        -0.806115
 H        -1.223679         1.906585         0.210201
 H        -2.687695         0.723164         1.979507
 H        -4.044004         1.806689         1.511491
 H        -2.792128        -1.308056         2.627302
 H        -4.339234        -1.314241         3.300852
 H        -4.029010        -2.465479         2.192954
