19
Iteration:  3556charge 0 multiplicity 1
 C         0.253951        -1.644418        -0.382719
 C        -0.554342        -0.450204        -0.056165
 C        -1.264795         0.463359         0.372746
 C        -2.577149         1.169682         0.147090
 O        -2.650770         2.557721         0.056862
 C        -3.583597         0.740277         1.294518
 C        -4.288371        -0.596505         1.391221
 C        -4.332703        -1.476121         2.557854
 O        -4.959902        -0.999264         0.350802
 H        -0.324604        -2.520026        -0.512637
 H         0.947727        -1.569281        -1.209028
 H         0.877887        -1.875396         0.550271
 H        -3.059675         0.691167        -0.699400
 H        -2.362677         2.728897        -0.861066
 H        -3.107268         0.899505         2.309773
 H        -4.358446         1.510552         1.065319
 H        -3.341143        -1.944504         2.599701
 H        -4.517008        -0.919398         3.408852
 H        -5.092143        -2.211395         2.445973
