19
Iteration:  2606
 C         0.171847        -1.523401        -0.062365
 C        -0.739818        -0.449411        -0.045332
 C        -1.701551         0.322678        -0.045455
 C        -2.811758         1.226869         0.077070
 O        -2.297375         2.607015         0.415566
 C        -3.776422         0.856841         1.242219
 C        -4.167597        -0.710190         1.209110
 C        -3.931322        -1.565146         2.458328
 O        -4.911834        -1.042039         0.225593
 H         0.690696        -1.714767         0.870074
 H        -0.530721        -2.339323        -0.316388
 H         0.870621        -1.466823        -0.911141
 H        -3.264474         1.209186        -0.950945
 H        -1.625607         2.343705         1.157669
 H        -3.177956         1.024836         2.154287
 H        -4.784866         1.432562         1.328472
 H        -3.348488        -2.398873         2.089695
 H        -3.332340        -0.898585         3.076795
 H        -4.942529        -1.935333         2.743338
