19
Iteration:  4484charge 0 multiplicity 1
 C         0.205857        -1.464874         0.315625
 C        -0.925449        -0.593920         0.181604
 C        -1.797767         0.166426        -0.314906
 C        -2.858268         1.245682        -0.053944
 O        -2.282011         2.670975         0.161327
 C        -3.505206         0.726439         1.300629
 C        -4.304335        -0.596042         1.234900
 C        -3.517868        -1.662791         2.112460
 O        -5.277909        -0.818498         0.600544
 H         1.121502        -0.928789         0.334836
 H         0.073576        -2.062984         1.222206
 H         0.200452        -2.156592        -0.548584
 H        -3.689119         1.354112        -0.818376
 H        -1.678509         2.583135        -0.631895
 H        -2.709946         0.515955         2.002346
 H        -4.198181         1.419084         1.705889
 H        -2.674722        -2.099030         1.557117
 H        -3.220496        -1.335500         3.103054
 H        -4.124996        -2.576868         2.080846
