19
Iteration:  2884
 C         0.581691        -1.073145        -0.318859
 C        -0.577911        -0.217608        -0.427150
 C        -1.754943        -0.031069        -0.150843
 C        -2.830752         0.924811         0.179784
 O        -2.171846         2.189924         0.240171
 C        -3.579399         0.623349         1.529339
 C        -4.382742        -0.599090         1.364120
 C        -4.695344        -1.313702         2.742172
 O        -4.803716        -0.833020         0.264493
 H         0.750331        -1.620450         0.620080
 H         0.549407        -1.842204        -1.084806
 H         1.428815        -0.435230        -0.458086
 H        -3.623229         0.957629        -0.626879
 H        -1.334738         1.937763         0.627697
 H        -2.951045         0.577519         2.475291
 H        -4.291643         1.423027         1.704346
 H        -5.128162        -0.457898         3.263311
 H        -5.404506        -2.129919         2.712820
 H        -3.780045        -1.701498         3.162005
