19
Iteration:   577charge 0 multiplicity 1
 C         1.238184        -0.498872        -0.612311
 C        -0.116750        -0.131680        -0.187876
 C        -1.202452         0.233200         0.223339
 C        -2.556194         0.725460         0.492119
 O        -2.587421         2.101669         0.883864
 C        -3.293047        -0.101727         1.589405
 C        -4.682576        -0.755543         1.161523
 C        -5.998721        -0.730973         2.039182
 O        -4.677951        -1.154553        -0.020645
 H         2.106406         0.056716        -0.306864
 H         1.380157        -1.493667        -0.192456
 H         1.355561        -0.635748        -1.671214
 H        -3.216733         0.475168        -0.360850
 H        -3.324630         2.451237         0.456187
 H        -2.792358        -1.075492         1.876696
 H        -3.236495         0.441183         2.485721
 H        -6.378699         0.312050         1.983913
 H        -6.725860        -1.514627         1.837214
 H        -5.833370        -0.883427         3.136256
