19
Iteration:  3384charge 0 multiplicity 1
 C         0.468382        -1.340279        -0.472280
 C        -0.658878        -0.414197        -0.254517
 C        -1.728353         0.224714        -0.195166
 C        -2.888814         1.101692         0.077850
 O        -2.319225         2.309468         0.571594
 C        -3.682355         0.651143         1.338601
 C        -4.237608        -0.619960         1.378383
 C        -4.754816        -1.029374         2.731698
 O        -4.418561        -1.235368         0.287791
 H         0.314107        -2.359258        -0.071757
 H         0.812881        -1.523483        -1.529256
 H         1.363460        -0.837516        -0.046328
 H        -3.593366         1.239763        -0.717122
 H        -1.414191         2.410943         0.150953
 H        -3.134421         0.868080         2.246637
 H        -4.576775         1.331102         1.259808
 H        -3.830243        -1.299343         3.306678
 H        -4.963378        -0.033171         3.228653
 H        -5.641090        -1.699781         2.678467
