19
Iteration:  3040charge 0 multiplicity 1
 C         0.641184        -1.117031        -0.767822
 C        -0.573789        -0.665343        -0.164401
 C        -1.357290         0.260158         0.127466
 C        -2.583836         0.940283         0.379407
 O        -2.658850         2.461984         0.027034
 C        -3.299115         0.481000         1.629480
 C        -4.380331        -0.556057         1.423736
 C        -5.200423        -1.053656         2.623834
 O        -4.644000        -1.107540         0.361498
 H         1.189107        -1.963065        -0.310290
 H         0.333679        -1.539501        -1.710651
 H         1.330479        -0.275480        -0.854635
 H        -3.180170         0.611608        -0.574992
 H        -1.767014         2.917159         0.338819
 H        -2.424773        -0.012219         2.236450
 H        -3.640183         1.175133         2.344641
 H        -4.986396        -0.755944         3.622399
 H        -6.256503        -1.022442         2.339861
 H        -4.976714        -2.099174         2.837884
