19
Iteration:  4523
 C         0.217228        -1.476612         0.249125
 C        -0.872749        -0.490932        -0.136419
 C        -1.760446         0.330618        -0.347599
 C        -2.931326         1.190895         0.004104
 O        -2.327598         2.544221         0.156154
 C        -3.551234         0.737391         1.305749
 C        -4.168949        -0.607638         1.291902
 C        -3.822528        -1.702881         2.373032
 O        -5.020228        -0.800758         0.502000
 H         1.251812        -1.231751         0.591137
 H        -0.228778        -2.128458         1.047669
 H         0.323205        -2.267210        -0.561502
 H        -3.692226         1.158021        -0.810445
 H        -1.402211         2.531984         0.217874
 H        -2.693600         0.851000         1.992007
 H        -4.306404         1.482897         1.766285
 H        -2.816608        -2.077384         2.219459
 H        -3.793681        -1.334520         3.432884
 H        -4.680673        -2.447267         2.193052
