19
Iteration:  3567charge 0 multiplicity 1
 C         0.267584        -1.613107        -0.341521
 C        -0.498662        -0.456271        -0.067759
 C        -1.267381         0.445411         0.329638
 C        -2.599664         1.006246         0.178720
 O        -2.659979         2.514633         0.091129
 C        -3.611739         0.843704         1.282214
 C        -4.430009        -0.512675         1.305257
 C        -4.290274        -1.493455         2.579091
 O        -4.904092        -0.988403         0.371138
 H        -0.508812        -2.307808        -0.597519
 H         0.833045        -1.490555        -1.260870
 H         0.911474        -2.064873         0.460850
 H        -2.905494         0.639919        -0.792835
 H        -2.391709         2.841444        -0.721350
 H        -3.088863         1.167381         2.228130
 H        -4.387333         1.634000         1.168802
 H        -3.307599        -1.940276         2.415349
 H        -4.218040        -1.077108         3.528828
 H        -5.023020        -2.264686         2.503552
