19
Iteration:  2055
 C         0.359859        -1.469272         0.347549
 C        -0.565398        -0.410559         0.249939
 C        -1.516685         0.393143         0.278240
 C        -2.863108         1.093050         0.159686
 O        -2.670067         2.544646         0.216251
 C        -3.654199         0.704913         1.344171
 C        -4.253561        -0.625157         1.074953
 C        -3.646898        -1.904998         1.614989
 O        -5.294608        -0.619979         0.371143
 H         1.347692        -0.980129         0.585081
 H         0.233792        -2.165925         1.184629
 H         0.350380        -2.045480        -0.578781
 H        -3.333451         0.801296        -0.806278
 H        -1.671756         2.711060        -0.004832
 H        -3.057084         0.819596         2.257855
 H        -4.545626         1.303651         1.503701
 H        -3.181172        -2.277454         0.717666
 H        -2.998108        -1.499127         2.370858
 H        -4.329611        -2.626609         2.053764
