19
Iteration:   144
 C         1.541841         0.102931         0.092747
 C         0.069462         0.008899         0.088928
 C        -1.137398        -0.085664        -0.027688
 C        -2.607693         0.011393        -0.024549
 O        -3.080827         1.345256        -0.368049
 C        -3.235005        -0.550736         1.313195
 C        -4.670855        -0.307362         1.458840
 C        -5.494367        -1.637437         1.583472
 O        -5.238994         0.782409         1.478941
 H         1.967428         0.295674         1.033840
 H         1.844574        -0.877058        -0.227992
 H         1.901211         0.694136        -0.745914
 H        -3.061003        -0.609379        -0.751331
 H        -2.225954         1.836784        -0.017833
 H        -3.065673        -1.555216         1.459611
 H        -2.804474        -0.099876         2.256013
 H        -5.651222        -1.882821         2.582247
 H        -6.513211        -1.610362         1.279238
 H        -5.160107        -2.524165         1.072045
