19
Iteration:  2344
 C         0.610623        -1.131687         0.297388
 C        -0.734940        -0.607169         0.030169
 C        -1.538828         0.274446         0.021712
 C        -2.747937         1.076862         0.145735
 O        -2.572594         2.468462         0.071628
 C        -3.433663         0.639246         1.431693
 C        -4.402369        -0.577735         1.234785
 C        -3.982186        -1.938466         1.889901
 O        -5.362990        -0.560075         0.471705
 H         1.233163        -0.519004         0.951230
 H         0.701758        -2.231890         0.490916
 H         1.119036        -1.031247        -0.704842
 H        -3.506366         0.889656        -0.701459
 H        -1.777402         2.741032         0.444684
 H        -2.797311         0.525864         2.291526
 H        -4.259331         1.383592         1.532888
 H        -3.225601        -2.367897         1.179160
 H        -3.380746        -1.810419         2.835282
 H        -4.689685        -2.736740         1.879872
