19
Iteration:  3552
 C         0.250873        -1.659437        -0.380588
 C        -0.555527        -0.468904        -0.045844
 C        -1.286258         0.482883         0.363057
 C        -2.591940         1.201543         0.143555
 O        -2.635928         2.580070         0.040243
 C        -3.562884         0.710079         1.331131
 C        -4.265613        -0.672307         1.337851
 C        -4.331538        -1.445292         2.549638
 O        -4.961092        -0.980482         0.369604
 H        -0.349002        -2.644925        -0.566941
 H         0.971905        -1.499500        -1.232540
 H         0.866245        -1.681370         0.568278
 H        -3.021005         0.751622        -0.743252
 H        -2.309739         2.717471        -0.909537
 H        -3.182436         0.842328         2.357279
 H        -4.454267         1.410096         1.159327
 H        -3.398590        -1.990271         2.841477
 H        -4.597639        -0.867909         3.528172
 H        -5.128575        -2.215080         2.367615
