19
Iteration:   904
 C         1.497125         0.186386         0.271026
 C         0.045092         0.005060         0.079511
 C        -1.162217         0.014496        -0.134624
 C        -2.624922         0.198175         0.055500
 O        -2.778457         1.604976         0.721761
 C        -3.268674        -0.847444         0.786161
 C        -4.764829        -0.647626         1.046038
 C        -5.144115        -0.090965         2.345049
 O        -5.633783        -0.835353         0.223728
 H         1.799760         1.172424        -0.122193
 H         1.688166         0.047328         1.373311
 H         2.159797        -0.529414        -0.310744
 H        -2.959497         0.423123        -1.000336
 H        -3.652786         1.701365         1.000283
 H        -3.025765        -1.770670         0.168293
 H        -2.661462        -1.073432         1.691865
 H        -5.317594         0.969511         2.580498
 H        -6.132954        -0.538469         2.460944
 H        -4.527443        -0.382987         3.155889
