19
Iteration:  4178
 C         0.893720        -1.004433         0.337708
 C        -0.358107        -0.403054        -0.045015
 C        -1.493937         0.015817        -0.187655
 C        -2.756495         0.648965        -0.029067
 O        -2.650011         2.069992        -0.092898
 C        -3.554182         0.629901         1.475293
 C        -4.475158        -0.420187         1.354664
 C        -4.026800        -1.784300         1.585128
 O        -5.665008        -0.111560         1.119280
 H         1.750351        -0.664673        -0.227683
 H         1.155791        -0.834529         1.402801
 H         0.859628        -2.151290         0.236267
 H        -3.464591         0.202980        -0.717432
 H        -1.758305         2.327884        -0.012612
 H        -2.652704         0.772334         2.110661
 H        -4.170473         1.573821         1.380949
 H        -3.122123        -2.105173         1.096000
 H        -3.862651        -1.948842         2.610177
 H        -4.756126        -2.494941         1.329446
