19
Iteration:   155
 C         1.538202         0.035818         0.063893
 C         0.048573        -0.034975         0.070731
 C        -1.190864         0.000251         0.108599
 C        -2.686812         0.015353        -0.078501
 O        -3.039438         1.373439        -0.280070
 C        -3.200105        -0.531674         1.300922
 C        -4.725352        -0.351884         1.432829
 C        -5.485957        -1.655375         1.602073
 O        -5.216592         0.754017         1.437828
 H         1.943435         0.395538         0.975641
 H         1.999906        -0.913934        -0.121268
 H         1.867802         0.817868        -0.618143
 H        -2.958829        -0.590032        -0.925137
 H        -2.291660         1.850625        -0.818169
 H        -2.879361        -1.511624         1.297105
 H        -2.670995         0.119188         2.047961
 H        -5.396361        -1.735695         2.641296
 H        -6.479565        -1.497614         1.263479
 H        -4.909897        -2.494611         1.267345
