19
Iteration:  3906
 C         0.527392        -1.371385         0.370364
 C        -0.579491        -0.529239        -0.045663
 C        -1.567181         0.179603        -0.140587
 C        -2.863264         0.946436        -0.064850
 O        -2.412552         2.358632         0.059009
 C        -3.603850         0.742206         1.165757
 C        -4.383151        -0.515345         1.313402
 C        -3.592888        -1.726839         1.865219
 O        -5.614016        -0.452906         0.996255
 H         0.983279        -1.824435        -0.472466
 H         1.352501        -0.886813         0.921502
 H         0.326421        -2.298737         0.980739
 H        -3.441094         0.811765        -1.085624
 H        -3.087579         2.973500        -0.367497
 H        -2.893249         0.942343         1.982444
 H        -4.374519         1.528099         1.353662
 H        -3.269231        -2.292261         0.896831
 H        -2.614171        -1.499062         2.307677
 H        -4.109032        -2.449348         2.559505
