19
Iteration:   176charge 0 multiplicity 1
 C         1.426573        -0.023703         0.066640
 C         0.033798        -0.118004         0.044559
 C        -1.134565         0.027362         0.124015
 C        -2.532512         0.125527        -0.013385
 O        -2.975377         1.477930        -0.240707
 C        -3.195431        -0.446704         1.241261
 C        -4.656324        -0.372614         1.364723
 C        -5.483504        -1.706755         1.697939
 O        -5.268750         0.681338         1.361311
 H         1.856149         0.327719         0.969436
 H         1.770557        -1.025183        -0.086493
 H         1.780249         0.694372        -0.666145
 H        -2.842846        -0.438468        -0.918176
 H        -3.638075         1.457711        -0.908664
 H        -2.823402        -1.395853         1.447433
 H        -3.009469         0.300439         2.075015
 H        -5.442986        -1.939431         2.744569
 H        -6.492174        -1.520460         1.364796
 H        -5.033222        -2.616588         1.277735
