19
Iteration:   290
 C         1.412567        -0.456762        -0.020692
 C        -0.009553        -0.273460         0.144411
 C        -1.134879         0.186481         0.002603
 C        -2.594274         0.536346         0.130400
 O        -2.951256         1.882037        -0.108494
 C        -3.226244        -0.145536         1.471557
 C        -4.674784        -0.464659         1.384362
 C        -5.195363        -1.775329         1.839506
 O        -5.517886         0.160068         0.760861
 H         1.991645         0.090643         0.762356
 H         1.709966        -1.508920        -0.005257
 H         1.703093         0.143488        -0.879193
 H        -2.984804        -0.027385        -0.757850
 H        -2.293359         2.374393         0.515966
 H        -2.576927        -1.063501         1.821215
 H        -3.238486         0.596565         2.281138
 H        -4.730582        -2.218184         2.751393
 H        -6.225407        -1.693759         2.157462
 H        -5.081808        -2.442734         1.003801
