19
Iteration:   339
 C         1.306547        -0.628703        -0.029831
 C        -0.024517        -0.024921        -0.025113
 C        -1.223966         0.134885         0.108154
 C        -2.647306         0.499515         0.162294
 O        -2.713438         2.051525         0.185210
 C        -3.292078        -0.072125         1.453280
 C        -4.769857        -0.522333         1.236609
 C        -5.008253        -1.752640         2.050728
 O        -5.506645         0.020279         0.444660
 H         1.987167        -0.268015         0.758538
 H         1.078736        -1.697028         0.163442
 H         1.936808        -0.362599        -0.915605
 H        -2.976967         0.064525        -0.741578
 H        -3.674165         2.274054        -0.038529
 H        -2.830040        -0.983092         1.648333
 H        -3.187824         0.571799         2.354981
 H        -4.837182        -1.497068         3.081030
 H        -6.065918        -2.103093         2.025730
 H        -4.287749        -2.537235         1.624445
