19
Iteration:   636charge 0 multiplicity 1
 C         1.225322        -0.400432        -0.657305
 C        -0.091022        -0.089957        -0.105579
 C        -1.211012         0.211068         0.252646
 C        -2.608539         0.627336         0.522204
 O        -2.604548         2.075510         0.978717
 C        -3.400320        -0.281527         1.609089
 C        -4.635208        -0.885067         1.118018
 C        -5.915245        -0.383016         1.964961
 O        -4.720674        -1.312799        -0.041980
 H         1.914920         0.411460        -0.402120
 H         1.627318        -1.335648        -0.219754
 H         1.108167        -0.574966        -1.753318
 H        -3.139473         0.670806        -0.475467
 H        -2.343466         2.583947         0.060932
 H        -2.759425        -1.034226         2.021945
 H        -3.539523         0.586029         2.353115
 H        -6.246017         0.581067         1.736643
 H        -6.653818        -1.167693         1.880313
 H        -5.393103        -0.357802         2.891385
