19
Iteration:   599charge 0 multiplicity 1
 C         1.176375        -0.498193        -0.628163
 C        -0.079179        -0.009278        -0.171255
 C        -1.213234         0.159769         0.250078
 C        -2.557860         0.659874         0.481581
 O        -2.585069         2.084851         0.839634
 C        -3.309430        -0.150062         1.592948
 C        -4.672702        -0.641997         1.160770
 C        -5.882235        -0.609035         1.885194
 O        -4.746756        -1.246237         0.080187
 H         1.927332         0.252475        -0.393989
 H         1.499082        -1.440260        -0.200166
 H         1.242791        -0.515249        -1.706444
 H        -3.164601         0.342260        -0.389494
 H        -2.956269         2.134949         1.824525
 H        -2.755726        -1.069733         1.931264
 H        -3.478685         0.263673         2.534304
 H        -6.648048         0.184870         1.742129
 H        -6.387563        -1.548324         1.614459
 H        -5.762835        -0.789163         2.989028
