19
Iteration:  4974
 C         0.704902        -0.854415        -0.906963
 C        -0.683004        -0.608501        -0.327252
 C        -1.781899        -0.115814        -0.141282
 C        -2.786452         0.905288         0.258778
 O        -2.293971         2.285281         0.280645
 C        -3.371115         0.589013         1.618345
 C        -4.365825        -0.543774         1.506214
 C        -5.456430        -0.694975         2.660636
 O        -4.199994        -1.442255         0.639111
 H         1.390589        -0.753875        -0.084828
 H         0.740868        -1.841424        -1.463002
 H         1.048894         0.015541        -1.571691
 H        -3.565195         0.932652        -0.509007
 H        -1.580526         2.277000        -0.321543
 H        -2.682535         0.356122         2.411553
 H        -3.904752         1.567132         1.826052
 H        -4.913233        -0.555349         3.621966
 H        -6.140264         0.182057         2.649859
 H        -5.860132        -1.642948         2.227572
