19
Iteration:  3160charge 0 multiplicity 1
 C         0.680000        -0.983477        -0.620883
 C        -0.654835        -0.497372        -0.283249
 C        -1.724333         0.147528        -0.306651
 C        -2.710128         1.124951         0.134270
 O        -2.191754         2.338262         0.584820
 C        -3.479975         0.509910         1.346012
 C        -4.352772        -0.757732         1.299773
 C        -5.064676        -0.797481         2.745458
 O        -4.705793        -1.480193         0.481916
 H         0.955585        -1.743948         0.121971
 H         0.813050        -1.514179        -1.547274
 H         1.415461        -0.206949        -0.461829
 H        -3.398580         1.278813        -0.735174
 H        -1.291641         2.403549         0.434114
 H        -2.659276         0.469170         2.133049
 H        -4.161843         1.182824         1.804811
 H        -4.442742        -0.423088         3.588413
 H        -5.971702        -0.153306         2.458928
 H        -5.479320        -1.822988         2.872129
