19
Iteration:   841charge 0 multiplicity 1
 C         1.460482        -0.101332        -0.075466
 C         0.071254         0.169284         0.054157
 C        -1.129003         0.212341         0.149348
 C        -2.491056         0.405523         0.296322
 O        -2.997631         1.699662         0.708396
 C        -3.203358        -0.895806         0.922112
 C        -4.744037        -0.718241         1.031009
 C        -5.321114         0.004479         2.234744
 O        -5.498196        -1.064526         0.157919
 H         2.114263         0.733784        -0.225550
 H         1.815347        -0.481417         0.902543
 H         1.566588        -0.939109        -0.813760
 H        -2.876968         0.372728        -0.769602
 H        -2.418704         1.867987         1.427421
 H        -2.955101        -1.745551         0.330526
 H        -2.828659        -0.992468         1.958912
 H        -5.231826         1.067952         2.153343
 H        -6.332218        -0.385984         2.150566
 H        -4.938654        -0.420699         3.191097
