19
Iteration:   903charge 0 multiplicity 1
 C         1.512154         0.178609         0.269335
 C         0.045054         0.006331         0.082443
 C        -1.163878         0.012074        -0.140835
 C        -2.619598         0.194326         0.048734
 O        -2.786575         1.611093         0.732460
 C        -3.261143        -0.845454         0.791965
 C        -4.777780        -0.643921         1.043591
 C        -5.142631        -0.084073         2.349317
 O        -5.633908        -0.845594         0.217527
 H         1.793097         1.170594        -0.139930
 H         1.724817         0.047306         1.354853
 H         2.161362        -0.509382        -0.312128
 H        -2.968678         0.454380        -0.969836
 H        -3.665004         1.721183         0.965665
 H        -3.038058        -1.789304         0.166550
 H        -2.669629        -1.057572         1.695008
 H        -5.349594         0.986759         2.623033
 H        -6.145852        -0.546005         2.456340
 H        -4.516764        -0.391450         3.135817
