19
Iteration:  3903charge 0 multiplicity 1
 C         0.544047        -1.399588         0.359078
 C        -0.594637        -0.522538         0.000371
 C        -1.580685         0.174631        -0.124585
 C        -2.841132         0.968214        -0.087088
 O        -2.428599         2.357495         0.042058
 C        -3.598779         0.743447         1.186562
 C        -4.414329        -0.483528         1.314018
 C        -3.601715        -1.696548         1.847455
 O        -5.585424        -0.482855         0.989432
 H         0.938502        -1.801717        -0.596059
 H         1.393744        -0.896978         0.857870
 H         0.324470        -2.329300         0.962063
 H        -3.451460         0.801980        -0.934058
 H        -3.086860         2.887324        -0.326983
 H        -2.846519         0.883587         1.993752
 H        -4.387685         1.445652         1.414392
 H        -3.244356        -2.278970         0.887031
 H        -2.598638        -1.440933         2.271825
 H        -4.071484        -2.471069         2.540998
