19
Iteration:   689charge 0 multiplicity 1
 C         1.340628        -0.382630        -0.563262
 C        -0.072032        -0.113571        -0.152494
 C        -1.178409         0.293233         0.192556
 C        -2.605350         0.640934         0.478066
 O        -2.709961         2.020219         0.907915
 C        -3.313364        -0.349392         1.521424
 C        -4.688790        -0.751585         1.096259
 C        -5.998901        -0.321751         1.978529
 O        -4.755730        -1.385944         0.069515
 H         1.824343         0.561643        -0.452011
 H         1.835980        -1.148497         0.019191
 H         1.368225        -0.568126        -1.654029
 H        -3.167150         0.643522        -0.474159
 H        -1.806312         2.136293         1.396345
 H        -2.856213        -1.321035         1.540292
 H        -3.093683         0.095068         2.495139
 H        -5.779196         0.741128         2.034084
 H        -6.934718        -0.449530         1.388259
 H        -6.013594        -0.872592         2.977265
