19
Iteration:  2558
 C         0.327778        -1.543795        -0.222322
 C        -0.834309        -0.686241         0.067313
 C        -1.620691         0.281956         0.206875
 C        -2.739771         1.258092         0.220505
 O        -2.378412         2.620067         0.362401
 C        -3.924022         0.930340         1.192443
 C        -4.316765        -0.602587         1.123823
 C        -3.752997        -1.553745         2.362193
 O        -4.975895        -1.061971         0.246939
 H         0.940727        -1.486035         0.682904
 H         0.066031        -2.551525        -0.437162
 H         0.906808        -1.122368        -1.020541
 H        -3.191942         1.148161        -0.736195
 H        -1.773155         2.707880         1.054125
 H        -3.618123         1.104787         2.216219
 H        -4.645949         1.655587         0.811316
 H        -4.046476        -2.631434         2.154111
 H        -2.610303        -1.415281         2.373128
 H        -4.312179        -1.159559         3.251779
