19
Iteration:   554charge 0 multiplicity 1
 C         1.198898        -0.568884        -0.560049
 C        -0.155214        -0.186837        -0.141627
 C        -1.214089         0.370898         0.174683
 C        -2.616798         0.684462         0.520161
 O        -2.693057         2.114537         0.828333
 C        -3.364639        -0.173196         1.675984
 C        -4.612893        -0.683658         1.070954
 C        -5.754794        -0.772985         2.078097
 O        -4.768359        -1.118445        -0.071449
 H         1.961420         0.133980        -0.179993
 H         1.569194        -1.537964        -0.224823
 H         1.346482        -0.508897        -1.617037
 H        -3.296261         0.503323        -0.346740
 H        -1.806992         2.412500         0.314390
 H        -2.752833        -0.999350         2.149555
 H        -3.488149         0.539365         2.441237
 H        -6.129966         0.290744         2.246708
 H        -6.490910        -1.507570         1.707331
 H        -5.562712        -1.135229         3.097455
