19
Iteration:  4576
 C         0.324461        -1.559302        -0.225306
 C        -0.820666        -0.620474        -0.164517
 C        -1.646421         0.256473         0.108948
 C        -2.874604         1.148455         0.157456
 O        -2.463202         2.511108         0.059570
 C        -3.604404         0.787558         1.494452
 C        -4.200086        -0.586289         1.289974
 C        -4.101603        -1.409124         2.534522
 O        -4.788199        -0.889632         0.256983
 H         1.201077        -0.975366         0.121742
 H         0.290370        -2.391011         0.450646
 H         0.628672        -1.920672        -1.179160
 H        -3.542544         0.894256        -0.784896
 H        -2.161339         2.883810         0.857017
 H        -2.920784         0.938805         2.373439
 H        -4.552045         1.415393         1.712526
 H        -3.078251        -1.659687         2.794108
 H        -4.466107        -0.743269         3.321295
 H        -4.571772        -2.403026         2.414644
