19
Iteration:  1637charge 0 multiplicity 1
 C         0.429810        -1.221419         0.125770
 C        -0.572671        -0.186977        -0.081893
 C        -1.498756         0.605314         0.054650
 C        -2.826723         1.121210         0.254506
 O        -2.488402         2.596845         0.561822
 C        -3.607450         0.517572         1.369324
 C        -4.349475        -0.865557         1.042217
 C        -4.654275        -1.736119         2.228333
 O        -4.546573        -1.093991        -0.124100
 H         1.259222        -1.234879        -0.542857
 H         0.859129        -1.030913         1.130772
 H        -0.068687        -2.240295         0.092409
 H        -3.342392         1.244274        -0.773650
 H        -1.739864         2.587265         1.267020
 H        -2.982630         0.580132         2.271684
 H        -4.417124         1.232680         1.511496
 H        -5.686857        -2.196404         2.177233
 H        -3.920604        -2.540392         2.345539
 H        -4.706825        -1.061861         3.092838
