19
Iteration:  3137charge 0 multiplicity 1
 C         0.752386        -0.986271        -0.567315
 C        -0.660570        -0.539259        -0.493659
 C        -1.548144         0.235862        -0.258214
 C        -2.715918         1.050922         0.102115
 O        -2.104327         2.456870         0.496577
 C        -3.525242         0.575328         1.338294
 C        -4.629254        -0.677120         1.441331
 C        -5.203351        -0.965851         2.794575
 O        -4.675106        -1.479906         0.514575
 H         1.024357        -1.779825         0.174037
 H         0.891764        -1.548110        -1.481869
 H         1.458829        -0.205433        -0.498234
 H        -3.286212         1.253022        -0.778725
 H        -1.087108         2.271626         0.474649
 H        -2.682685         0.254917         2.016963
 H        -3.893133         1.433742         1.861823
 H        -4.414644        -0.668649         3.519778
 H        -6.284431        -0.694887         2.998460
 H        -5.160859        -2.105626         2.759351
