19
Iteration:  1159charge 0 multiplicity 1
 C         1.568855        -0.049975         0.186516
 C         0.057269         0.011764         0.025896
 C        -1.191438        -0.022142        -0.056637
 C        -2.656505         0.409618        -0.004006
 O        -2.886710         1.817053         0.101969
 C        -3.223720        -0.304897         1.352385
 C        -4.765094        -0.568929         1.292116
 C        -5.554524        -1.059405         2.463872
 O        -5.280562        -0.564423         0.151263
 H         1.948857         0.554529        -0.669312
 H         2.021987         0.305548         1.112951
 H         2.078647        -0.994278        -0.023710
 H        -3.198477         0.118509        -0.873986
 H        -2.264874         2.157666         0.816983
 H        -2.860269        -1.317741         1.478665
 H        -2.925552         0.305090         2.227022
 H        -5.956948        -0.436221         3.201507
 H        -6.320851        -1.729330         2.044769
 H        -4.958095        -1.821083         3.001676
