19
Iteration:  4633charge 0 multiplicity 1
 C         0.233211        -1.388942        -0.661520
 C        -0.589022        -0.459626         0.034969
 C        -1.501918         0.282494         0.356720
 C        -2.710900         1.036314         0.276314
 O        -2.369111         2.409350         0.072796
 C        -3.748726         0.866357         1.312900
 C        -4.326234        -0.584463         1.353167
 C        -4.487330        -1.340105         2.678524
 O        -4.626851        -1.123098         0.296570
 H         1.266584        -1.171714        -0.475736
 H         0.050651        -2.422018        -0.326845
 H         0.001954        -1.293484        -1.752666
 H        -3.143921         0.844860        -0.760601
 H        -1.358216         2.550290         0.035180
 H        -3.249984         1.049548         2.288245
 H        -4.643746         1.572608         1.133182
 H        -3.562544        -1.391505         3.227024
 H        -5.148184        -0.745944         3.347776
 H        -4.966288        -2.335947         2.674029
