19
Iteration:  2845charge 0 multiplicity 1
 C         0.684462        -1.225022        -0.378274
 C        -0.659371        -0.550811        -0.268109
 C        -1.674883         0.144359        -0.024015
 C        -2.809094         1.093348         0.119365
 O        -2.157198         2.416635         0.195329
 C        -3.679753         0.762451         1.454502
 C        -4.466535        -0.565448         1.432563
 C        -4.597317        -1.463641         2.604783
 O        -4.923787        -0.968970         0.378651
 H         1.111634        -1.625718         0.564911
 H         0.723083        -1.879906        -1.274862
 H         1.380952        -0.428787        -0.760794
 H        -3.476116         1.114884        -0.739946
 H        -1.188827         2.240712         0.516467
 H        -2.931958         0.733101         2.224432
 H        -4.212312         1.733215         1.722411
 H        -5.236297        -1.170949         3.449108
 H        -5.071749        -2.373111         2.152771
 H        -3.649636        -1.665565         3.175853
