19
Iteration:   940
 C         1.406719         0.285287         0.396129
 C         0.037896         0.083755         0.021067
 C        -1.161206        -0.011339        -0.100632
 C        -2.667330         0.153613        -0.035813
 O        -2.744550         1.579188         0.549297
 C        -3.365296        -1.028384         0.715268
 C        -4.782283        -0.671781         1.068588
 C        -5.096294        -0.119937         2.576640
 O        -5.538030        -0.662119         0.159489
 H         1.915583         1.228765         0.217040
 H         1.364245         0.179519         1.520355
 H         2.022965        -0.625512         0.093122
 H        -3.114674        -0.014439        -1.065863
 H        -3.214661         1.500395         1.351092
 H        -3.264680        -1.821056         0.028333
 H        -2.665693        -1.066913         1.601026
 H        -4.905010         0.895010         2.612961
 H        -6.065634        -0.372185         2.958765
 H        -4.314532        -0.713488         3.143358
