19
Iteration:  1980
 C         0.331359        -1.447022         0.292879
 C        -0.610828        -0.282439         0.215803
 C        -1.611074         0.429563         0.215361
 C        -2.791497         1.128068         0.292354
 O        -2.514427         2.602335         0.333643
 C        -3.673858         0.664587         1.314537
 C        -4.278699        -0.771126         0.979297
 C        -3.755788        -1.891599         1.897855
 O        -5.192194        -0.745121         0.156287
 H         1.420393        -1.231679         0.240790
 H         0.163922        -2.079428         1.146355
 H         0.105015        -2.096932        -0.508364
 H        -3.272499         0.851260        -0.665406
 H        -2.205508         2.948612        -0.442497
 H        -3.318877         0.820943         2.312194
 H        -4.411189         1.434462         1.224841
 H        -4.550903        -2.680975         1.948512
 H        -2.867633        -2.224417         1.174517
 H        -3.360126        -1.213120         2.748728
