19
Iteration:  2235
 C         0.941188        -1.138546        -0.071753
 C        -0.446532        -0.593635         0.329106
 C        -1.428285         0.165496         0.349573
 C        -2.732464         1.002815         0.156326
 O        -2.400361         2.448461         0.188906
 C        -3.854294         0.830023         1.191306
 C        -4.647019        -0.624032         1.165631
 C        -3.886141        -1.811916         1.835450
 O        -5.691720        -0.668828         0.542833
 H         1.765232        -0.607259         0.366234
 H         0.928374        -2.206202         0.219998
 H         1.157952        -0.994985        -1.152688
 H        -3.029036         0.865165        -0.931237
 H        -1.781869         2.626781         0.970210
 H        -3.484434         1.207095         2.132439
 H        -4.664221         1.460252         0.802124
 H        -4.568829        -2.482884         2.478345
 H        -3.565131        -2.576225         1.004801
 H        -2.950656        -1.533577         2.459307
