19
Iteration:  1798charge 0 multiplicity 1
 C         0.565513        -1.328430        -0.154746
 C        -0.664468        -0.469906         0.178805
 C        -1.511413         0.386749         0.306396
 C        -2.728196         1.285108         0.311347
 O        -2.461805         2.634776         0.632751
 C        -3.844413         0.746798         1.187514
 C        -4.354962        -0.734478         0.920819
 C        -4.303613        -1.626894         2.214085
 O        -4.833229        -1.223209        -0.056432
 H         1.186931        -0.618703        -0.787894
 H         1.126404        -1.444020         0.818751
 H         0.346397        -2.219817        -0.847977
 H        -3.019040         1.322095        -0.725526
 H        -1.892953         2.645449         1.505637
 H        -3.559070         0.779650         2.309509
 H        -4.771958         1.448802         0.984394
 H        -3.221976        -1.593305         2.478425
 H        -5.021096        -1.132602         2.881368
 H        -4.628165        -2.695880         2.097631
