19
Iteration:  3840
 C         0.264850        -1.460645        -0.009985
 C        -0.734023        -0.475537         0.188890
 C        -1.522281         0.351685         0.615954
 C        -2.771041         0.954644         0.183920
 O        -2.341821         2.300456        -0.371897
 C        -3.801048         0.949446         1.340212
 C        -4.305605        -0.495127         1.316574
 C        -3.486798        -1.816470         1.794614
 O        -5.349068        -0.585175         0.805624
 H         0.098314        -1.757545        -1.015639
 H         1.247925        -0.967002         0.078590
 H         0.110811        -2.412701         0.601758
 H        -3.151525         0.362599        -0.789809
 H        -3.179305         2.718135        -0.462745
 H        -3.357137         1.206743         2.342885
 H        -4.640526         1.667457         1.101299
 H        -2.920660        -2.057317         0.839341
 H        -2.837177        -1.619698         2.638988
 H        -4.328198        -2.479617         2.090641
