19
Iteration:  3643
 C         0.441342        -1.211052        -0.099405
 C        -0.957157        -0.809640        -0.076017
 C        -1.790821         0.117268        -0.092377
 C        -2.878149         1.097674         0.071980
 O        -2.162317         2.413910         0.014138
 C        -3.677511         0.887451         1.444090
 C        -4.330905        -0.500402         1.343158
 C        -4.043069        -1.494906         2.478907
 O        -4.939572        -0.928067         0.430601
 H         0.634975        -2.067474        -0.716931
 H         0.979562        -0.360005        -0.571961
 H         0.762642        -1.209176         1.005915
 H        -3.576504         1.106007        -0.690082
 H        -1.486287         2.479468         0.789439
 H        -3.036788         1.095391         2.353811
 H        -4.457410         1.696392         1.393442
 H        -2.959965        -1.734532         2.324945
 H        -4.081907        -1.286088         3.501815
 H        -4.595200        -2.351167         2.148047
