19
Iteration:  3953charge 0 multiplicity 1
 C         0.570931        -1.149522         0.477648
 C        -0.628169        -0.500545        -0.140755
 C        -1.638695         0.154398        -0.354486
 C        -2.728265         1.040706        -0.220318
 O        -2.051199         2.478450         0.011903
 C        -3.577360         0.743246         1.144201
 C        -4.481745        -0.547283         1.396177
 C        -3.844256        -1.920699         1.838866
 O        -5.743326        -0.672286         1.250688
 H         1.455728        -1.584747        -0.064076
 H         0.894229        -0.394358         1.186777
 H         0.189740        -1.946052         1.060454
 H        -3.600339         1.045478        -1.036205
 H        -2.492530         3.015550        -0.736857
 H        -2.818005         0.647974         1.916204
 H        -4.203627         1.567169         1.487416
 H        -3.507450        -2.445386         1.014031
 H        -2.978673        -1.967911         2.504173
 H        -4.589784        -2.482684         2.294559
