19
Iteration:   626
 C         1.207394        -0.464041        -0.652164
 C        -0.079904        -0.048919        -0.114775
 C        -1.215953         0.265089         0.246997
 C        -2.606416         0.644497         0.511827
 O        -2.630143         2.046442         0.934121
 C        -3.337659        -0.228739         1.621509
 C        -4.715937        -0.825290         1.069011
 C        -5.920041        -0.451744         2.004000
 O        -4.683921        -1.310116        -0.046194
 H         1.908391         0.393588        -0.447933
 H         1.756268        -1.355771        -0.295957
 H         1.199733        -0.471740        -1.770780
 H        -3.266639         0.344712        -0.328084
 H        -1.652967         2.309917         0.621748
 H        -2.705099        -0.985002         2.057577
 H        -3.705653         0.429968         2.512563
 H        -6.298489         0.504115         1.677578
 H        -6.738296        -1.183654         2.013388
 H        -5.711616        -0.305971         3.038428
