19
Iteration:  1142charge 0 multiplicity 1
 C         1.461519        -0.022765         0.175664
 C         0.082948         0.012548         0.072623
 C        -1.115050         0.142348        -0.153056
 C        -2.547497         0.294428         0.128371
 O        -2.964906         1.726285         0.135141
 C        -3.160813        -0.399466         1.327658
 C        -4.735824        -0.568739         1.210616
 C        -5.468771        -1.020270         2.427154
 O        -5.407393        -0.513845         0.164724
 H         2.117256         0.590676        -0.482765
 H         1.639965         0.292319         1.223471
 H         1.751668        -1.080864         0.104297
 H        -3.102367        -0.245341        -0.707204
 H        -2.239650         2.337718         0.329617
 H        -2.788806        -1.468529         1.436137
 H        -3.041031         0.120257         2.297556
 H        -5.425927        -0.047157         3.071966
 H        -6.513596        -1.172108         2.183244
 H        -4.935014        -1.809106         2.967393
