19
Iteration:  2033
 C         0.393791        -1.528995         0.296830
 C        -0.653109        -0.471071         0.346368
 C        -1.410101         0.450100         0.202669
 C        -2.703977         1.205852         0.176607
 O        -2.790140         2.610258         0.215876
 C        -3.653840         0.704216         1.380200
 C        -4.261552        -0.660761         1.044717
 C        -3.626923        -1.953817         1.654490
 O        -5.295054        -0.651868         0.328485
 H         1.408717        -1.122856         0.516957
 H         0.251514        -2.218916         1.142861
 H         0.250588        -2.130991        -0.591158
 H        -3.155567         0.761168        -0.713476
 H        -2.024442         3.026334        -0.054713
 H        -3.177091         0.915104         2.341835
 H        -4.501542         1.400017         1.330293
 H        -3.720693        -2.736437         0.931427
 H        -2.812886        -1.782220         2.325421
 H        -4.463017        -2.181440         2.351780
