19
Iteration:  3604charge 0 multiplicity 1
 C         0.392494        -1.502318        -0.309777
 C        -0.592143        -0.468755         0.062192
 C        -1.628069         0.131554         0.174361
 C        -2.794082         1.038956         0.206587
 O        -2.490611         2.483564         0.045271
 C        -3.716973         0.862907         1.418164
 C        -4.290904        -0.591229         1.239504
 C        -4.071255        -1.399905         2.548992
 O        -4.932032        -0.857288         0.282183
 H        -0.169191        -2.389901        -0.717058
 H         1.097856        -1.098722        -1.057385
 H         0.973721        -1.938942         0.460196
 H        -3.481657         0.713743        -0.696180
 H        -1.545011         2.402988        -0.097511
 H        -3.259678         1.053115         2.365389
 H        -4.609264         1.444365         1.264122
 H        -3.157636        -2.029119         2.445716
 H        -3.977975        -0.784412         3.510025
 H        -4.975731        -2.052502         2.709230
