19
Iteration:  3941charge 0 multiplicity 1
 C         0.498807        -1.177342         0.514495
 C        -0.553020        -0.534878        -0.284476
 C        -1.590763         0.117585        -0.318604
 C        -2.730543         1.049443        -0.085396
 O        -2.175112         2.452390         0.035663
 C        -3.570709         0.759077         1.138362
 C        -4.461909        -0.619517         1.334848
 C        -3.857389        -1.845725         1.876780
 O        -5.628682        -0.639235         1.232111
 H         1.279924        -1.550533        -0.160384
 H         0.966042        -0.433151         1.170300
 H         0.056557        -1.959726         1.114343
 H        -3.387260         1.072791        -1.094585
 H        -2.645996         3.048316        -0.613989
 H        -2.903202         0.866505         1.991276
 H        -4.270491         1.608343         1.025849
 H        -3.677109        -2.333076         0.937549
 H        -2.958881        -1.772921         2.494136
 H        -4.702335        -2.348623         2.266498
