19
Iteration:  1314charge 0 multiplicity 1
 C         1.082822        -0.660866        -0.151734
 C        -0.193687        -0.254468         0.091234
 C        -1.210769         0.456429         0.214166
 C        -2.686381         0.773802         0.281152
 O        -2.832783         2.141841         0.322799
 C        -3.315673         0.251659         1.576968
 C        -4.588874        -0.652679         1.137671
 C        -5.400731        -1.284597         2.238509
 O        -4.723511        -1.030887        -0.048067
 H         1.504271        -0.164005        -1.112462
 H         1.710049        -0.433791         0.727545
 H         1.114643        -1.731120        -0.225438
 H        -3.088499         0.316178        -0.701763
 H        -3.716147         2.404770         0.156304
 H        -2.626679        -0.411817         2.114048
 H        -3.458859         1.139989         2.181419
 H        -5.887234        -2.200815         1.746519
 H        -4.997067        -1.539862         3.216752
 H        -6.156697        -0.529030         2.349197
