19
Iteration:  2955charge 0 multiplicity 1
 C         0.667693        -1.226869        -0.570893
 C        -0.542441        -0.424238        -0.272260
 C        -1.447802         0.334157        -0.036441
 C        -2.719735         1.016982         0.134424
 O        -2.445030         2.428954         0.255803
 C        -3.342055         0.405127         1.514041
 C        -4.394813        -0.638872         1.428782
 C        -4.992635        -1.143714         2.763580
 O        -4.878830        -1.093399         0.302763
 H         1.016806        -1.827356         0.328116
 H         0.657215        -1.997216        -1.389766
 H         1.475272        -0.402399        -0.735954
 H        -3.317670         0.897813        -0.791670
 H        -1.561391         2.520408         0.572265
 H        -2.507726         0.138144         2.151873
 H        -4.015446         1.245867         1.967980
 H        -4.954757        -0.244198         3.381132
 H        -6.054761        -1.282775         2.500840
 H        -4.565803        -2.108220         3.046904
