19
Iteration:  2627
 C         0.150326        -1.565930        -0.024303
 C        -0.795463        -0.380825        -0.219314
 C        -1.721562         0.351500        -0.087045
 C        -2.773309         1.333348         0.234547
 O        -2.228950         2.608357         0.282391
 C        -3.720357         0.802440         1.330951
 C        -4.297948        -0.619310         1.291987
 C        -4.013770        -1.641690         2.423048
 O        -4.796866        -1.126974         0.233311
 H         0.385281        -1.416197         1.013885
 H        -0.358005        -2.511067        -0.021324
 H         1.091309        -1.614917        -0.524241
 H        -3.408287         1.440788        -0.651125
 H        -1.419112         2.630681         0.804335
 H        -3.569029         1.003694         2.372278
 H        -4.746103         1.355418         1.278787
 H        -3.240191        -2.241726         1.900149
 H        -3.585300        -1.215923         3.371491
 H        -4.939845        -2.292610         2.303238
