19
Iteration:  4972charge 0 multiplicity 1
 C         0.691426        -0.851024        -0.923204
 C        -0.684705        -0.609629        -0.313654
 C        -1.772543        -0.129041        -0.122096
 C        -2.766831         0.879623         0.265324
 O        -2.310225         2.293452         0.288337
 C        -3.369480         0.605639         1.623620
 C        -4.362433        -0.553556         1.488364
 C        -5.455333        -0.682629         2.652836
 O        -4.200315        -1.441049         0.636441
 H         1.415083        -0.752194        -0.069534
 H         0.762899        -1.839820        -1.486487
 H         1.046842         0.024177        -1.609614
 H        -3.614724         0.948415        -0.458217
 H        -1.574272         2.227640        -0.368246
 H        -2.647011         0.400991         2.380743
 H        -3.924504         1.591830         1.814153
 H        -4.878207        -0.566464         3.569031
 H        -6.187314         0.177874         2.677289
 H        -5.839399        -1.616582         2.225742
