19
Iteration:  1835charge 0 multiplicity 1
 C         0.559871        -1.218077        -0.082186
 C        -0.645874        -0.411553         0.043702
 C        -1.631959         0.297103         0.280189
 C        -2.746269         1.182809         0.338221
 O        -2.338857         2.500012         0.670732
 C        -3.947274         0.783634         1.095600
 C        -4.381523        -0.756741         0.972117
 C        -4.122790        -1.609239         2.246032
 O        -4.912123        -1.093122        -0.071644
 H         1.350043        -0.658326        -0.544751
 H         0.937913        -1.535032         0.894742
 H         0.447572        -2.206157        -0.568132
 H        -3.028016         1.332438        -0.734663
 H        -1.865724         2.600635         1.543004
 H        -3.802593         1.265664         2.072897
 H        -4.859757         1.210537         0.698854
 H        -3.699237        -1.075783         3.172861
 H        -5.164575        -1.907903         2.661518
 H        -3.584463        -2.567268         1.997179
