19
Iteration:   931charge 0 multiplicity 1
 C         1.393944         0.222150         0.408462
 C         0.017076         0.084498        -0.027054
 C        -1.208520         0.027558        -0.011441
 C        -2.671730         0.177511        -0.093412
 O        -2.690403         1.595710         0.582805
 C        -3.252592        -1.034948         0.750384
 C        -4.818202        -0.715471         1.121784
 C        -5.110758        -0.112373         2.534832
 O        -5.583264        -0.683761         0.124168
 H         1.693875         1.234377         0.031988
 H         1.510605         0.276754         1.485102
 H         2.112601        -0.451804        -0.064728
 H        -2.964409         0.309596        -1.203551
 H        -3.258574         1.500372         1.309158
 H        -3.207465        -1.916896         0.112734
 H        -2.495468        -1.310482         1.500484
 H        -4.960618         0.976787         2.512779
 H        -6.129438        -0.353794         2.947496
 H        -4.410744        -0.489614         3.353366
