19
Iteration:  2090
 C         0.517920        -1.379396         0.394784
 C        -0.636798        -0.387233         0.215095
 C        -1.647051         0.251244         0.056155
 C        -2.864875         1.154334         0.213460
 O        -2.375115         2.563930         0.215975
 C        -3.784525         0.747582         1.440042
 C        -4.367310        -0.660652         1.104630
 C        -3.659468        -1.782298         1.544854
 O        -5.417045        -0.768690         0.444057
 H         1.420534        -0.774438         0.591213
 H         0.248032        -2.025357         1.213432
 H         0.840588        -1.898494        -0.494193
 H        -3.544808         0.857211        -0.570012
 H        -1.425866         2.237286        -0.062976
 H        -3.084698         0.829523         2.248986
 H        -4.677248         1.366752         1.525887
 H        -2.609023        -1.826963         1.093874
 H        -3.355457        -1.883300         2.623203
 H        -4.135317        -2.722802         1.158881
