19
Iteration:  2479
 C         0.398498        -1.403968        -0.055066
 C        -0.766345        -0.575237         0.199650
 C        -1.668211         0.194648         0.137494
 C        -2.762875         1.119526         0.236582
 O        -2.430137         2.504783         0.240504
 C        -3.827448         0.846489         1.310025
 C        -4.320490        -0.602821         1.133836
 C        -3.674151        -1.617802         2.136640
 O        -5.142924        -0.857434         0.300528
 H         1.204790        -1.390930         0.683599
 H         0.125843        -2.455709        -0.272525
 H         0.753699        -0.956031        -1.012430
 H        -3.339993         1.050184        -0.705701
 H        -1.568208         2.708100         0.606343
 H        -3.449184         1.287780         2.263991
 H        -4.662041         1.444085         1.039244
 H        -4.406769        -1.595278         3.005260
 H        -3.689958        -2.591391         1.592619
 H        -2.637321        -1.199454         2.466076
