19
Iteration:  3676charge 0 multiplicity 1
 C         0.410175        -1.132049         0.086367
 C        -0.876364        -0.497859        -0.227875
 C        -2.048796        -0.127968        -0.251993
 C        -2.931454         1.046459        -0.037981
 O        -2.075773         2.296182         0.163068
 C        -3.610464         0.796588         1.351707
 C        -4.212807        -0.549554         1.334807
 C        -3.886220        -1.458941         2.473284
 O        -5.106215        -0.771608         0.446869
 H         0.558457        -2.105661        -0.374821
 H         1.205053        -0.392936        -0.168482
 H         0.414405        -1.404292         1.220048
 H        -3.503308         1.377183        -0.800775
 H        -1.505002         2.058875         0.957431
 H        -2.872298         0.954477         2.208444
 H        -4.525577         1.451314         1.441490
 H        -2.793259        -1.415468         2.659985
 H        -4.335259        -1.163076         3.380832
 H        -4.145975        -2.490590         2.467581
