19
Iteration:   757
 C         1.392836        -0.364934        -0.354089
 C        -0.018179         0.046656        -0.115233
 C        -1.172978         0.338876         0.197840
 C        -2.590658         0.538247         0.377706
 O        -2.896338         1.928550         0.856624
 C        -3.199850        -0.607751         1.278482
 C        -4.743712        -0.730366         1.112793
 C        -5.735922        -0.118786         2.101371
 O        -4.956163        -1.340128         0.035761
 H         1.940061         0.606211        -0.496420
 H         1.887130        -0.976189         0.398482
 H         1.529481        -0.843513        -1.331834
 H        -3.090034         0.361292        -0.588901
 H        -2.512490         1.904952         1.750491
 H        -2.765575        -1.562925         1.031682
 H        -2.932156        -0.355601         2.363065
 H        -5.232917         0.826059         2.388988
 H        -6.586516         0.208303         1.467502
 H        -6.054816        -0.656041         3.067756
