19
Iteration:  4793
 C         0.577237        -1.061678        -0.460755
 C        -0.743185        -0.405598        -0.613553
 C        -1.757901         0.242994        -0.574687
 C        -2.815302         0.926008         0.254072
 O        -2.353161         2.291831         0.347376
 C        -3.153157         0.449233         1.632921
 C        -4.228547        -0.684647         1.556323
 C        -5.360423        -0.724430         2.629458
 O        -4.398586        -1.341369         0.571241
 H         1.340756        -0.620171         0.335829
 H         0.454126        -2.147251        -0.246877
 H         1.141291        -1.034729        -1.392710
 H        -3.751047         1.030906        -0.225673
 H        -1.423932         2.222066         0.803094
 H        -2.242997        -0.200442         1.822393
 H        -3.092973         1.208302         2.353549
 H        -5.156189        -0.957075         3.680373
 H        -5.911999         0.192224         2.411997
 H        -5.812316        -1.637558         2.178851
