19
Iteration:  3219charge 0 multiplicity 1
 C         0.630787        -1.238666        -0.667171
 C        -0.547882        -0.398887        -0.487044
 C        -1.585850         0.203810        -0.163147
 C        -2.732356         0.995491         0.229983
 O        -2.348059         2.433598         0.412597
 C        -3.386972         0.599357         1.571579
 C        -4.460272        -0.622707         1.452034
 C        -5.294618        -1.033090         2.623475
 O        -4.414901        -1.299927         0.517729
 H         0.750703        -1.977433         0.139617
 H         0.874201        -1.718810        -1.643217
 H         1.534478        -0.563170        -0.534799
 H        -3.434728         0.999119        -0.723166
 H        -1.913857         2.750069        -0.446077
 H        -2.590314         0.345641         2.324659
 H        -4.048292         1.485921         1.841167
 H        -4.817842        -1.144696         3.614050
 H        -5.991885        -0.274979         2.984684
 H        -5.880409        -1.934488         2.358302
