19
Iteration:  3200charge 0 multiplicity 1
 C         0.651489        -1.138094        -0.631726
 C        -0.547979        -0.294113        -0.379327
 C        -1.657886         0.141763        -0.204082
 C        -2.803331         0.985661         0.173813
 O        -2.324472         2.245822         0.528288
 C        -3.514719         0.544280         1.474953
 C        -4.428576        -0.680221         1.361334
 C        -5.179400        -0.805078         2.741986
 O        -4.394958        -1.323203         0.386358
 H         0.439671        -1.902889         0.162158
 H         0.475334        -1.632268        -1.635264
 H         1.671700        -0.697771        -0.631434
 H        -3.528859         1.140784        -0.684542
 H        -1.674165         2.530737        -0.226082
 H        -2.715616         0.118431         2.042074
 H        -3.766498         1.499340         2.056664
 H        -4.521574        -0.847359         3.610149
 H        -5.861128         0.002807         2.960472
 H        -5.497556        -1.860336         2.781122
