19
Iteration:  4350
 C         0.697946        -1.332224        -0.089935
 C        -0.485480        -0.525594         0.224874
 C        -1.437728         0.241476         0.328200
 C        -2.657576         1.003088         0.062877
 O        -2.395447         2.431874        -0.100894
 C        -3.766101         0.836920         1.057802
 C        -4.477829        -0.574058         1.229335
 C        -3.931169        -1.855780         1.892925
 O        -5.641146        -0.542975         1.075431
 H         1.572591        -0.810453        -0.402165
 H         1.045870        -1.886041         0.795848
 H         0.473825        -2.059562        -0.905438
 H        -2.945178         0.660478        -1.067098
 H        -1.413703         2.686907         0.046238
 H        -3.607148         1.193480         2.034216
 H        -4.610678         1.349632         0.592469
 H        -3.114046        -2.374136         1.401784
 H        -3.628401        -1.790568         2.973883
 H        -4.794229        -2.512529         1.999577
