19
Iteration:  4463
 C         0.285694        -1.540536         0.340626
 C        -0.874984        -0.624776        -0.000921
 C        -1.747359         0.209831        -0.115099
 C        -2.830706         1.190329        -0.012685
 O        -2.366423         2.482964         0.174183
 C        -3.657439         0.930696         1.319613
 C        -4.254449        -0.562439         1.264658
 C        -3.485732        -1.685792         1.923063
 O        -5.268830        -0.747657         0.671473
 H         1.203556        -0.985387         0.342884
 H         0.063484        -1.962211         1.307395
 H         0.350919        -2.328492        -0.386256
 H        -3.673943         1.018174        -0.773083
 H        -1.960004         2.761172        -0.696469
 H        -2.896558         1.097484         2.114844
 H        -4.531866         1.563738         1.383960
 H        -2.634424        -1.855380         1.250201
 H        -3.221483        -1.270175         2.875846
 H        -4.049482        -2.615146         1.938753
