19
Iteration:  4683charge 0 multiplicity 1
 C         0.526297        -1.341388        -0.724548
 C        -0.589811        -0.552953        -0.240602
 C        -1.501311         0.189649         0.128765
 C        -2.756877         1.002741         0.206802
 O        -2.381432         2.389248         0.373192
 C        -3.690398         0.832525         1.387453
 C        -4.374321        -0.533535         1.361987
 C        -4.798942        -1.048666         2.745558
 O        -4.528223        -1.277179         0.358620
 H         1.526209        -1.005453        -0.281280
 H         0.358438        -2.391785        -0.440182
 H         0.499078        -1.285680        -1.801951
 H        -3.381992         0.910035        -0.624932
 H        -1.917610         2.825182        -0.316747
 H        -3.433231         1.047865         2.412317
 H        -4.460799         1.479638         1.062329
 H        -3.896182        -1.146755         3.388185
 H        -5.537552        -0.565626         3.386006
 H        -5.231266        -2.070547         2.639764
