19
Iteration:   527charge 0 multiplicity 1
 C         1.097153        -0.613892        -0.472704
 C        -0.126372        -0.064856        -0.092439
 C        -1.274461         0.123292         0.241314
 C        -2.603102         0.768979         0.394868
 O        -2.663690         2.146889         0.721341
 C        -3.353365        -0.079068         1.506246
 C        -4.589839        -0.722241         1.080592
 C        -5.626230        -0.896001         2.163806
 O        -4.797014        -1.011842        -0.079468
 H         1.916599         0.062402        -0.121956
 H         1.365971        -1.646119        -0.139196
 H         1.314835        -0.467809        -1.587285
 H        -3.196775         0.582968        -0.515959
 H        -2.819355         2.157066         1.789117
 H        -2.672150        -0.833413         1.966750
 H        -3.352751         0.590758         2.478841
 H        -5.846068         0.149876         2.508442
 H        -6.597982        -1.368379         1.894090
 H        -5.290489        -1.411963         3.099385
