19
Iteration:  3809charge 0 multiplicity 1
 C         0.289436        -1.606794        -0.126470
 C        -0.468507        -0.457272         0.269380
 C        -1.424777         0.290844         0.451772
 C        -2.716323         0.933471         0.220841
 O        -2.464408         2.394457        -0.246523
 C        -3.865919         0.913228         1.421588
 C        -4.383800        -0.459043         1.332984
 C        -3.529157        -1.506430         1.878872
 O        -5.429113        -0.759549         0.675040
 H        -0.078560        -1.912842        -1.118826
 H         1.398048        -1.471321        -0.220315
 H         0.226453        -2.492140         0.571035
 H        -3.199963         0.471377        -0.621043
 H        -3.242016         2.546275        -0.892003
 H        -3.443140         1.059332         2.433066
 H        -4.496091         1.792504         1.143836
 H        -2.746757        -1.736214         1.179615
 H        -3.058093        -1.136346         2.742910
 H        -4.162144        -2.375458         2.065862
