19
Iteration:   586charge 0 multiplicity 1
 C         1.249433        -0.518772        -0.633693
 C        -0.104462        -0.051540        -0.195611
 C        -1.224151         0.154137         0.269387
 C        -2.598348         0.683613         0.481705
 O        -2.578975         2.114383         0.865156
 C        -3.272234        -0.154851         1.618782
 C        -4.627070        -0.657097         1.116037
 C        -6.015567        -0.711741         2.041767
 O        -4.706599        -1.202576         0.018229
 H         2.045182         0.173662        -0.252301
 H         1.479990        -1.508734        -0.215090
 H         1.268345        -0.633756        -1.705531
 H        -3.073287         0.760453        -0.499929
 H        -3.468422         2.284728         1.031561
 H        -2.577881        -0.995232         1.789007
 H        -3.254225         0.564426         2.403847
 H        -6.534185         0.314609         1.803629
 H        -6.562768        -1.534218         1.520204
 H        -5.896350        -0.778330         3.132602
