19
Iteration:  4392
 C         0.426190        -1.499724        -0.035082
 C        -0.554261        -0.551549         0.467947
 C        -1.436735         0.266114         0.160811
 C        -2.690350         1.067370         0.007103
 O        -2.458839         2.450744        -0.023230
 C        -3.691098         0.820068         1.213571
 C        -4.461911        -0.512663         1.207350
 C        -3.619513        -1.657426         1.837157
 O        -5.629751        -0.708637         0.893535
 H         1.370046        -0.988207        -0.374480
 H         0.665468        -2.267584         0.753262
 H        -0.057493        -1.968079        -0.921839
 H        -3.194383         0.689342        -0.923486
 H        -1.511847         2.614912        -0.264125
 H        -3.032897         0.905195         2.051341
 H        -4.405272         1.673593         1.119912
 H        -2.839986        -1.804305         1.083490
 H        -3.315525        -1.170335         2.795151
 H        -4.234399        -2.545976         1.984021
