19
Iteration:  4477charge 0 multiplicity 1
 C         0.233665        -1.543890         0.335389
 C        -0.907836        -0.588174         0.126472
 C        -1.771235         0.175217        -0.277506
 C        -2.933027         1.217558        -0.027124
 O        -2.291305         2.631756         0.151055
 C        -3.581955         0.782009         1.323632
 C        -4.255316        -0.577041         1.268618
 C        -3.503551        -1.679014         2.024187
 O        -5.310117        -0.799386         0.603170
 H         1.158666        -0.861304         0.353321
 H         0.322670        -2.096539         1.271690
 H         0.405904        -2.245100        -0.446576
 H        -3.507670         1.391577        -1.007429
 H        -1.747708         2.820856        -0.587977
 H        -2.766001         0.704135         2.128747
 H        -4.207321         1.685822         1.697688
 H        -2.508775        -1.979626         1.587325
 H        -3.098039        -1.412692         3.014966
 H        -4.100144        -2.567271         2.149220
