19
Iteration:  4853
 C         0.664403        -1.164781        -0.948415
 C        -0.471269        -0.407043        -0.399086
 C        -1.412171         0.252564        -0.046529
 C        -2.734875         0.919371         0.257456
 O        -2.524589         2.369488         0.385952
 C        -3.362358         0.437247         1.659265
 C        -4.353633        -0.714604         1.468387
 C        -5.392167        -0.544642         2.572892
 O        -4.444906        -1.523052         0.574674
 H         1.580516        -1.023669        -0.433302
 H         0.314977        -2.215461        -0.969175
 H         0.738062        -0.830101        -2.023111
 H        -3.399046         0.703119        -0.647237
 H        -1.573637         2.647289         0.448489
 H        -2.619995         0.202210         2.408479
 H        -3.972599         1.373269         1.946325
 H        -4.880098        -0.335368         3.568966
 H        -6.228154         0.264279         2.520873
 H        -5.954221        -1.509781         2.563169
