19
Iteration:  3711
 C         0.430601        -1.271137         0.152672
 C        -0.801584        -0.476381        -0.163328
 C        -1.833435         0.111099        -0.441095
 C        -2.866874         1.072996        -0.026913
 O        -2.105281         2.345077         0.182202
 C        -3.611284         0.804866         1.331846
 C        -4.379176        -0.504449         1.382413
 C        -3.844220        -1.511934         2.406064
 O        -5.305133        -0.899477         0.586523
 H         0.695581        -2.120191        -0.446589
 H         1.352608        -0.644676         0.145493
 H         0.390620        -1.568069         1.222730
 H        -3.610777         1.127163        -0.801522
 H        -1.222540         2.212696        -0.201751
 H        -2.930722         0.851161         2.181655
 H        -4.404848         1.555784         1.485490
 H        -2.826755        -1.270490         2.507639
 H        -4.291586        -1.255189         3.315339
 H        -4.007000        -2.532941         2.095352
