19
Iteration:   790charge 0 multiplicity 1
 C         1.398770        -0.277601        -0.272427
 C        -0.001533        -0.008393         0.031345
 C        -1.149319         0.339363         0.150514
 C        -2.541900         0.493304         0.351911
 O        -2.973667         1.724251         0.968581
 C        -3.087159        -0.594480         1.173530
 C        -4.679875        -0.648543         0.983409
 C        -5.519490        -0.068382         2.089578
 O        -5.266494        -1.268049         0.101291
 H         1.853480         0.735383        -0.439237
 H         1.985586        -0.749625         0.517713
 H         1.439716        -0.815177        -1.211617
 H        -3.035136         0.362042        -0.635407
 H        -3.218326         2.321868         0.123772
 H        -2.651881        -1.541998         0.837083
 H        -2.798563        -0.434224         2.255036
 H        -5.017102         0.921392         2.173039
 H        -6.548621        -0.008336         1.689881
 H        -5.488026        -0.768714         3.007712
