19
Iteration:  4093charge 0 multiplicity 1
 C         0.736498        -1.346307         0.000389
 C        -0.207657        -0.269429         0.525789
 C        -1.276144         0.308867         0.278216
 C        -2.672470         0.784523         0.100157
 O        -2.643342         2.173226        -0.337001
 C        -3.586208         0.716441         1.217944
 C        -4.549524        -0.470213         1.392147
 C        -3.976424        -1.896900         1.561980
 O        -5.696951        -0.262990         1.126783
 H         0.943572        -1.059687        -1.067060
 H         1.631024        -1.409283         0.621635
 H         0.128649        -2.276433        -0.075084
 H        -2.883147         0.287843        -0.788823
 H        -3.578357         2.382375        -0.744949
 H        -2.995018         0.993894         2.095747
 H        -4.350630         1.499982         1.167400
 H        -3.108447        -2.048656         0.773925
 H        -3.432928        -2.040656         2.558488
 H        -4.823032        -2.605943         1.445282
