19
Iteration:   104charge 0 multiplicity 1
 C         1.500186         0.197763         0.114601
 C         0.071552        -0.005197        -0.050339
 C        -1.133865        -0.103972         0.002369
 C        -2.609591        -0.192917        -0.053544
 O        -3.022617         1.243755        -0.306002
 C        -3.188234        -0.446051         1.382242
 C        -4.670426        -0.325723         1.455183
 C        -5.604447        -1.545226         1.444509
 O        -5.149992         0.779788         1.654601
 H         1.815975         0.433141         1.172688
 H         2.003465        -0.779233        -0.152097
 H         1.923682         1.033166        -0.511842
 H        -2.920377        -0.857609        -0.931009
 H        -3.517486         1.390078        -1.109375
 H        -2.896774        -1.450709         1.810974
 H        -2.713742         0.397575         1.920408
 H        -5.575966        -2.210198         2.379570
 H        -6.540557        -0.924950         1.331959
 H        -5.482135        -2.147544         0.518594
