19
Iteration:  2926
 C         0.705894        -1.046169        -0.481970
 C        -0.698500        -0.685420        -0.152499
 C        -1.596334         0.120281        -0.292192
 C        -2.650459         1.060675         0.139491
 O        -2.377436         2.504274         0.308146
 C        -3.336675         0.482634         1.525353
 C        -4.442908        -0.632530         1.340357
 C        -4.883031        -1.195714         2.700447
 O        -4.904821        -1.054160         0.370351
 H         1.081553        -1.550753         0.387466
 H         0.869996        -1.772132        -1.268500
 H         1.270476        -0.133904        -0.547431
 H        -3.365652         1.087053        -0.657046
 H        -1.379405         2.705506         0.427253
 H        -2.498177         0.128076         2.117412
 H        -3.927510         1.292509         1.932878
 H        -5.063907        -0.343148         3.448046
 H        -5.779581        -1.745342         2.365458
 H        -4.144683        -1.938811         3.094138
