19
Iteration:  3719charge 0 multiplicity 1
 C         0.494168        -1.339839         0.132553
 C        -0.770042        -0.535614        -0.129688
 C        -1.800076         0.114605        -0.446615
 C        -2.796748         1.177091         0.015910
 O        -2.144045         2.415771         0.145704
 C        -3.679980         0.782984         1.292295
 C        -4.387691        -0.594243         1.371980
 C        -3.848164        -1.536381         2.402000
 O        -5.314184        -0.860470         0.639010
 H         0.674878        -2.208871        -0.474924
 H         1.254292        -0.530313         0.162851
 H         0.305096        -1.598549         1.262870
 H        -3.599374         1.158655        -0.681615
 H        -1.422387         2.418136        -0.454801
 H        -3.031660         0.964488         2.215638
 H        -4.498148         1.545045         1.262150
 H        -2.718084        -1.383392         2.515501
 H        -4.269001        -1.374031         3.414750
 H        -4.191458        -2.512905         2.066057
