19
Iteration:  1586charge 0 multiplicity 1
 C         0.714338        -1.167472        -0.066249
 C        -0.495110        -0.323320         0.155933
 C        -1.445158         0.423621         0.152919
 C        -2.710387         1.266809         0.204728
 O        -2.574507         2.549792         0.723266
 C        -3.789575         0.536105         1.222715
 C        -4.385705        -0.799643         0.973145
 C        -4.728838        -1.579787         2.339661
 O        -4.676425        -1.238086        -0.151825
 H         1.198158        -0.796582        -1.048832
 H         1.516333        -1.055755         0.669371
 H         0.412691        -2.186524        -0.316926
 H        -2.991104         1.385584        -0.821708
 H        -1.929575         3.220430         0.456900
 H        -3.241946         0.525166         2.179947
 H        -4.719150         1.164126         1.331186
 H        -5.754471        -1.498243         2.729070
 H        -4.462030        -2.616534         2.189340
 H        -4.196763        -1.225105         3.201392
