19
Iteration:  3599charge 0 multiplicity 1
 C         0.405049        -1.560025        -0.329187
 C        -0.522648        -0.448778         0.077906
 C        -1.589526         0.200090         0.146623
 C        -2.808237         1.024415         0.245855
 O        -2.528323         2.453990         0.058046
 C        -3.732237         0.845855         1.396741
 C        -4.289531        -0.562197         1.318028
 C        -4.109854        -1.388767         2.494478
 O        -4.925666        -0.866999         0.272680
 H        -0.354568        -2.208878        -0.757077
 H         1.013301        -1.259923        -1.190256
 H         0.997109        -2.007641         0.529547
 H        -3.304129         0.743184        -0.621981
 H        -1.552931         2.458610        -0.248825
 H        -3.323911         1.061780         2.419166
 H        -4.688247         1.415787         1.257195
 H        -3.201326        -1.984570         2.525272
 H        -3.924709        -0.719895         3.288558
 H        -4.910451        -2.023551         2.808823
