19
Iteration:  1127
 C         1.509856        -0.069907         0.267979
 C         0.039726         0.076298        -0.000572
 C        -1.179846         0.295558        -0.023056
 C        -2.599947         0.261305         0.076647
 O        -3.000306         1.595961         0.163151
 C        -3.209337        -0.499745         1.293059
 C        -4.718185        -0.703586         1.107620
 C        -5.362152        -0.878629         2.525019
 O        -5.395435        -0.410744         0.119238
 H         1.929200         0.625487        -0.510814
 H         1.867243         0.316672         1.233418
 H         1.880407        -1.076121         0.059912
 H        -3.015374        -0.136624        -0.807809
 H        -2.204772         2.025142        -0.071586
 H        -2.701948        -1.471027         1.343480
 H        -2.889340         0.008433         2.197779
 H        -5.095304        -0.142661         3.241582
 H        -6.456590        -0.880441         2.403446
 H        -5.045219        -1.833776         2.924547
