19
Iteration:   668
 C         1.220501        -0.358493        -0.588974
 C        -0.121578        -0.136506        -0.131220
 C        -1.224050         0.190959         0.250698
 C        -2.559375         0.621576         0.495561
 O        -2.611715         2.014600         0.908298
 C        -3.270111        -0.230562         1.541706
 C        -4.641243        -0.687903         1.060094
 C        -5.872593        -0.357702         1.873239
 O        -4.809278        -1.384516         0.090901
 H         1.755042         0.568570        -0.435121
 H         1.721045        -1.167260        -0.064325
 H         1.262910        -0.457722        -1.692438
 H        -3.006474         0.699037        -0.505447
 H        -3.134389         2.087847         1.653547
 H        -2.703372        -1.134399         1.668167
 H        -3.165059         0.211349         2.577071
 H        -6.290173         0.616587         1.938600
 H        -6.676745        -1.025796         1.523884
 H        -5.663839        -0.825180         2.856380
