19
Iteration:  1908
 C         0.531537        -1.132951         0.141460
 C        -0.856684        -0.628639         0.127968
 C        -1.776291         0.226052         0.196649
 C        -2.879831         1.249371         0.238846
 O        -2.259871         2.500894         0.612010
 C        -3.915372         0.748213         1.218531
 C        -4.263004        -0.721912         0.885105
 C        -3.804755        -1.687079         2.122506
 O        -5.035477        -0.940225        -0.023816
 H         1.248707        -0.343873        -0.110515
 H         0.792155        -1.621825         1.123260
 H         0.641393        -2.096831        -0.469482
 H        -3.383775         1.276087        -0.732135
 H        -1.371977         2.258126         0.520871
 H        -3.621950         0.907071         2.285635
 H        -4.812542         1.475080         1.133121
 H        -4.616501        -1.315926         2.752710
 H        -3.974846        -2.736099         2.030832
 H        -2.886308        -1.223470         2.386594
