19
Iteration:  3424
 C         0.475021        -1.188821        -0.258801
 C        -0.973671        -0.532344        -0.225898
 C        -1.989749         0.108093        -0.259058
 C        -2.852930         1.257460         0.104696
 O        -1.991246         2.397037         0.427550
 C        -3.560423         0.751148         1.320842
 C        -4.370074        -0.587551         1.346726
 C        -4.627131        -1.250641         2.647585
 O        -4.469620        -1.306989         0.329901
 H         0.383936        -2.169045         0.137784
 H         0.907734        -1.093365        -1.219445
 H         1.078063        -0.685711         0.503884
 H        -3.616787         1.584144        -0.713821
 H        -1.728440         2.662038        -0.447316
 H        -2.774283         0.678634         2.139930
 H        -4.228405         1.441502         1.776542
 H        -3.715178        -1.393773         3.209496
 H        -5.291751        -0.739872         3.321438
 H        -5.110326        -2.245010         2.564003
