19
Iteration:  3306
 C         0.334122        -1.319917        -0.829463
 C        -0.435409        -0.364745        -0.031757
 C        -1.463358         0.223204         0.140659
 C        -2.661248         0.979655         0.227429
 O        -2.521474         2.456984         0.329313
 C        -3.530079         0.626405         1.485203
 C        -4.288606        -0.633892         1.406489
 C        -5.137836        -0.997944         2.640697
 O        -4.303435        -1.322990         0.319357
 H         0.228824        -2.285911        -0.374102
 H        -0.243630        -1.285294        -1.760181
 H         1.404095        -1.064752        -0.989782
 H        -3.200324         0.792758        -0.648955
 H        -1.902101         2.650446        -0.470723
 H        -2.905703         0.828604         2.380466
 H        -4.325769         1.408283         1.605512
 H        -4.393598        -1.617777         3.193854
 H        -5.346961        -0.100459         3.252619
 H        -6.170057        -1.452746         2.483009
