19
Iteration:  1304
 C         1.172522        -0.637775        -0.197411
 C        -0.234341        -0.196802         0.078553
 C        -1.237109         0.443924         0.285866
 C        -2.618967         0.684777         0.279899
 O        -2.790143         2.144636         0.287390
 C        -3.414543         0.255178         1.529975
 C        -4.618983        -0.700385         1.164473
 C        -5.435520        -1.296284         2.223774
 O        -4.725574        -0.953429        -0.001143
 H         1.809682        -0.202265        -1.066202
 H         1.809438        -0.318021         0.675513
 H         1.284547        -1.721005        -0.293711
 H        -3.260318         0.256914        -0.550405
 H        -3.599643         2.251423        -0.124125
 H        -2.797362        -0.531467         2.031489
 H        -3.529570         0.984689         2.308779
 H        -6.181977        -2.066847         1.887658
 H        -4.837707        -1.664152         3.056301
 H        -6.065817        -0.499319         2.616169
