19
Iteration:  3142charge 0 multiplicity 1
 C         0.733097        -1.005090        -0.549351
 C        -0.657583        -0.558011        -0.462333
 C        -1.579826         0.222367        -0.268101
 C        -2.732264         1.064979         0.098388
 O        -2.108362         2.464802         0.529076
 C        -3.505909         0.569677         1.326756
 C        -4.576033        -0.737389         1.410812
 C        -5.162029        -0.937195         2.761541
 O        -4.690300        -1.477169         0.528938
 H         1.200450        -1.730338         0.118419
 H         0.831814        -1.443089        -1.576717
 H         1.429235        -0.101384        -0.527386
 H        -3.356210         1.410386        -0.816182
 H        -1.211611         2.255157         0.437451
 H        -2.726572         0.142350         2.013146
 H        -3.866008         1.552428         1.754764
 H        -4.521433        -0.537690         3.553184
 H        -6.156832        -0.620390         3.009854
 H        -5.342112        -2.000949         2.805498
