19
Iteration:  2600
 C         0.213673        -1.535206        -0.125075
 C        -0.772659        -0.473623         0.047057
 C        -1.674865         0.319568        -0.036723
 C        -2.831852         1.206039         0.071096
 O        -2.349003         2.570276         0.449222
 C        -3.763853         0.898696         1.197059
 C        -4.171469        -0.674431         1.138129
 C        -3.889473        -1.531785         2.476092
 O        -4.941069        -1.043898         0.218239
 H         0.744646        -1.812872         0.826316
 H        -0.444921        -2.437900        -0.251949
 H         0.966332        -1.450399        -0.951795
 H        -3.251160         1.328818        -0.950748
 H        -1.706846         2.367287         1.161689
 H        -3.194835         1.069804         2.157147
 H        -4.599866         1.434731         1.518204
 H        -3.352208        -2.472282         2.172385
 H        -3.220436        -0.969708         3.136116
 H        -4.890738        -1.796132         2.792742
