19
Iteration:  4580charge 0 multiplicity 1
 C         0.334314        -1.532916        -0.260978
 C        -0.837806        -0.621170        -0.103205
 C        -1.650123         0.242515         0.124411
 C        -2.848273         1.093993         0.137581
 O        -2.469318         2.552366         0.040423
 C        -3.591859         0.800541         1.514231
 C        -4.230243        -0.606198         1.262138
 C        -4.108790        -1.402052         2.559315
 O        -4.772416        -0.893026         0.254138
 H         1.246616        -1.025488         0.069349
 H         0.277940        -2.461193         0.394875
 H         0.502862        -1.865695        -1.376062
 H        -3.387132         0.958389        -0.757515
 H        -2.100042         2.852036         0.950073
 H        -2.942633         0.962068         2.369186
 H        -4.531225         1.416398         1.600151
 H        -3.111380        -1.712626         2.896859
 H        -4.572301        -0.776288         3.365759
 H        -4.596184        -2.401990         2.465396
