19
Iteration:  2475charge 0 multiplicity 1
 C         0.400913        -1.365083        -0.036446
 C        -0.792749        -0.629452         0.171295
 C        -1.646165         0.200176         0.150165
 C        -2.748291         1.098026         0.216801
 O        -2.457602         2.545002         0.244643
 C        -3.782628         0.891131         1.325607
 C        -4.309372        -0.646241         1.119701
 C        -3.701626        -1.639367         2.140205
 O        -5.161492        -0.854039         0.312582
 H         1.154225        -1.346613         0.796837
 H         0.170188        -2.471104        -0.241727
 H         0.833519        -1.007884        -1.041742
 H        -3.370262         1.022236        -0.753837
 H        -1.530601         2.589332         0.601225
 H        -3.425851         1.344215         2.278146
 H        -4.647083         1.591643         1.002428
 H        -4.343924        -1.525798         2.996670
 H        -3.635883        -2.616817         1.650127
 H        -2.632583        -1.354754         2.262297
