19
Iteration:  2967
 C         0.661694        -1.245032        -0.587567
 C        -0.408065        -0.304603        -0.326459
 C        -1.432440         0.288862        -0.032787
 C        -2.713678         0.946691         0.218165
 O        -2.508023         2.368848         0.257600
 C        -3.416980         0.464380         1.508888
 C        -4.460284        -0.642003         1.372154
 C        -4.992131        -1.055481         2.686988
 O        -4.805341        -1.081350         0.349084
 H         0.720594        -1.858159         0.346314
 H         0.323011        -1.913791        -1.432251
 H         1.725150        -0.903359        -0.836388
 H        -3.418583         0.741566        -0.571501
 H        -1.653777         2.486303         0.705920
 H        -2.710053         0.069408         2.234924
 H        -3.752247         1.409679         2.074652
 H        -4.792223        -0.542271         3.652858
 H        -6.061746        -1.330039         2.589291
 H        -4.493011        -2.008423         2.956078
