19
Iteration:  4173
 C         0.914241        -1.074597         0.358168
 C        -0.335433        -0.406169        -0.076177
 C        -1.442418         0.074262        -0.171424
 C        -2.763517         0.676095         0.035637
 O        -2.688485         2.075102        -0.130233
 C        -3.514404         0.664067         1.465787
 C        -4.562714        -0.417415         1.344897
 C        -4.033445        -1.801173         1.584905
 O        -5.651546        -0.142371         1.128267
 H         1.640114        -0.600305        -0.360375
 H         1.212211        -0.894168         1.394944
 H         0.829444        -2.119595         0.263618
 H        -3.364825         0.335869        -0.876623
 H        -1.710202         2.419786        -0.201984
 H        -2.789865         0.645067         2.294197
 H        -4.113033         1.549734         1.421842
 H        -3.084069        -2.107524         1.084269
 H        -3.810604        -1.948276         2.709891
 H        -4.829769        -2.580673         1.324173
