19
Iteration:  4417charge 0 multiplicity 1
 C         0.462752        -1.645480         0.115518
 C        -0.598441        -0.563454         0.074391
 C        -1.515723         0.227775         0.199937
 C        -2.763708         1.078906         0.154341
 O        -2.465056         2.502361        -0.005946
 C        -3.808754         0.915796         1.342237
 C        -4.400182        -0.480146         1.258852
 C        -3.466933        -1.579915         1.788884
 O        -5.553759        -0.753070         0.778633
 H         1.463011        -1.348160         0.056674
 H         0.284710        -2.077279         1.102832
 H         0.258494        -2.411346        -0.682656
 H        -3.384320         0.643916        -0.762578
 H        -1.723817         2.588154        -0.588017
 H        -3.344722         1.153046         2.276147
 H        -4.508345         1.634148         1.010018
 H        -2.758595        -1.569175         0.986758
 H        -3.155109        -1.304293         2.786816
 H        -4.040741        -2.538248         1.769515
