19
Iteration:  2343
 C         0.610843        -1.128197         0.290883
 C        -0.733539        -0.605252         0.034868
 C        -1.536643         0.270382         0.024970
 C        -2.751014         1.073346         0.145595
 O        -2.576712         2.460740         0.073635
 C        -3.435661         0.651375         1.432556
 C        -4.406125        -0.578217         1.224725
 C        -3.978412        -1.935743         1.886900
 O        -5.361490        -0.558881         0.473528
 H         1.253058        -0.511228         0.972279
 H         0.690112        -2.233725         0.490699
 H         1.120061        -1.038927        -0.717485
 H        -3.491539         0.851790        -0.717948
 H        -1.753666         2.727352         0.463464
 H        -2.797152         0.523791         2.306078
 H        -4.239062         1.444386         1.554260
 H        -3.246242        -2.392569         1.169208
 H        -3.372394        -1.843778         2.838943
 H        -4.689200        -2.725860         1.908691
