19
Iteration:  2224charge 0 multiplicity 1
 C         0.901226        -1.138006        -0.050954
 C        -0.420695        -0.512247         0.299911
 C        -1.431981         0.145541         0.261388
 C        -2.682171         1.006441         0.204518
 O        -2.378974         2.418288         0.233357
 C        -3.957764         0.753481         1.077624
 C        -4.567601        -0.536803         1.145008
 C        -3.923935        -1.785808         1.830772
 O        -5.651544        -0.698194         0.617037
 H         1.612478        -0.620744         0.565700
 H         1.043998        -2.185597         0.286602
 H         1.129311        -1.136155        -1.134553
 H        -3.082056         0.778245        -0.835054
 H        -1.839503         2.431541         1.143019
 H        -3.744862         0.886553         2.129258
 H        -4.635750         1.555863         0.784008
 H        -4.596583        -2.197727         2.654725
 H        -3.852137        -2.473951         0.904657
 H        -2.854703        -1.554925         2.200437
