19
Iteration:  4486
 C         0.195507        -1.453451         0.308936
 C        -0.939245        -0.585347         0.183435
 C        -1.803356         0.168464        -0.314239
 C        -2.830805         1.249886        -0.049615
 O        -2.279334         2.666699         0.156670
 C        -3.488238         0.715183         1.286534
 C        -4.296463        -0.603031         1.233645
 C        -3.531315        -1.668260         2.129592
 O        -5.275299        -0.824245         0.597048
 H         1.160122        -0.930556         0.336102
 H         0.021724        -2.038791         1.184155
 H         0.150879        -2.090196        -0.517359
 H        -3.744350         1.316754        -0.792734
 H        -1.690802         2.582590        -0.562751
 H        -2.639413         0.500608         1.993767
 H        -4.237835         1.411248         1.719979
 H        -2.686633        -2.063566         1.519097
 H        -3.280031        -1.310713         3.113059
 H        -4.146719        -2.535836         2.120670
