19
Iteration:  2773
 C         0.350401        -1.525628        -0.354880
 C        -0.541477        -0.408459        -0.120562
 C        -1.474784         0.295891         0.113673
 C        -2.670605         1.095740         0.250996
 O        -2.490366         2.547067         0.147261
 C        -3.621071         0.724420         1.378834
 C        -4.432601        -0.572898         1.319176
 C        -4.362593        -1.550723         2.533213
 O        -4.868908        -0.886944         0.294949
 H         0.770381        -1.994027         0.533847
 H        -0.198340        -2.276265        -0.962847
 H         1.179973        -1.313743        -1.066250
 H        -3.194791         0.852945        -0.747355
 H        -1.959464         2.827788         0.957068
 H        -2.978911         0.770653         2.338949
 H        -4.326251         1.539526         1.533684
 H        -4.505147        -1.206727         3.602223
 H        -4.980082        -2.435896         2.361378
 H        -3.300613        -1.827595         2.430736
