19
Iteration:  3257charge 0 multiplicity 1
 C         0.555451        -1.291010        -0.813732
 C        -0.678705        -0.554496        -0.364338
 C        -1.420757         0.273380         0.102257
 C        -2.670851         1.010489         0.343971
 O        -2.539618         2.465867         0.210374
 C        -3.413786         0.581383         1.699501
 C        -4.330911        -0.684869         1.484930
 C        -5.315861        -1.042567         2.566170
 O        -4.250461        -1.160470         0.418319
 H         0.699962        -2.125199        -0.076755
 H         0.603164        -1.685640        -1.832798
 H         1.327065        -0.569273        -0.546085
 H        -3.408309         0.676316        -0.421184
 H        -2.071273         2.532315        -0.586612
 H        -2.754392         0.687260         2.558721
 H        -3.987583         1.500041         1.877378
 H        -4.821094        -1.632519         3.353940
 H        -5.777700        -0.103903         2.915727
 H        -6.109678        -1.500006         1.990743
