19
Iteration:   447
 C         1.177531        -0.683380        -0.206892
 C        -0.121874        -0.114373        -0.112598
 C        -1.262730         0.259200         0.069549
 C        -2.616668         0.743181         0.260091
 O        -2.698584         2.202445         0.555252
 C        -3.357037        -0.068779         1.428423
 C        -4.677999        -0.664281         1.125087
 C        -5.332036        -1.362077         2.367086
 O        -5.049836        -0.597984        -0.055816
 H         1.876443        -0.226689         0.514600
 H         1.064784        -1.764596         0.062527
 H         1.515253        -0.758794        -1.276724
 H        -3.059634         0.500931        -0.737697
 H        -2.847055         2.242546         1.562270
 H        -2.672455        -0.950211         1.813477
 H        -3.349985         0.674279         2.264686
 H        -5.484794        -0.605583         3.130575
 H        -6.330764        -1.778497         2.094842
 H        -4.723829        -2.122649         2.905021
