19
Iteration:  1396charge 0 multiplicity 1
 C         0.911373        -0.990650         0.063247
 C        -0.230814        -0.057756        -0.110308
 C        -1.269498         0.589063        -0.046696
 C        -2.743187         1.026526         0.294512
 O        -2.784973         2.383491         0.612893
 C        -3.363639         0.314455         1.400399
 C        -4.521638        -0.803940         1.075098
 C        -5.274519        -1.316412         2.273572
 O        -4.669316        -1.348572        -0.035429
 H         1.637127        -0.882124        -0.765665
 H         1.404674        -0.698635         1.063621
 H         0.516021        -2.095194         0.054988
 H        -3.342351         0.889044        -0.644850
 H        -2.709711         2.827514        -0.312189
 H        -2.517555        -0.252136         1.898015
 H        -3.705037         1.119736         2.119968
 H        -4.721745        -2.183778         2.603263
 H        -5.424157        -0.492640         2.990048
 H        -6.230100        -1.747370         1.860499
