19
Iteration:  4441charge 0 multiplicity 1
 C         0.268181        -1.589303         0.294504
 C        -0.719851        -0.559974        -0.194534
 C        -1.657513         0.182565         0.173112
 C        -2.753576         1.007637         0.142456
 O        -2.439867         2.464708         0.120024
 C        -3.844390         0.928290         1.256417
 C        -4.269144        -0.475570         1.313477
 C        -3.411809        -1.644413         1.820872
 O        -5.315492        -0.660315         0.721337
 H         1.161744        -1.007274         0.232669
 H         0.112368        -1.828863         1.323674
 H         0.432816        -2.423286        -0.354672
 H        -3.398688         0.593581        -0.787412
 H        -2.034502         2.670494        -0.720250
 H        -3.261618         1.262407         2.141732
 H        -4.621762         1.587173         0.940731
 H        -2.630384        -1.752514         1.075844
 H        -3.185653        -1.499638         2.851300
 H        -4.125283        -2.463681         1.685344
