19
Iteration:  1815
 C         0.579665        -1.232443        -0.116232
 C        -0.670247        -0.529147         0.045419
 C        -1.527114         0.277521         0.366587
 C        -2.667191         1.258575         0.263026
 O        -2.430714         2.673051         0.673910
 C        -3.935481         0.735306         1.162491
 C        -4.393395        -0.735099         0.949104
 C        -4.228547        -1.527417         2.139241
 O        -4.877442        -1.238890        -0.014956
 H         1.291087        -0.615663        -0.677873
 H         0.997058        -1.557754         0.812401
 H         0.353530        -2.154409        -0.568691
 H        -3.101413         1.340831        -0.782994
 H        -1.870069         2.515971         1.550063
 H        -3.717224         0.677359         2.222752
 H        -4.576856         1.569769         1.121549
 H        -3.448008        -1.321073         2.890599
 H        -5.116101        -1.600982         2.840175
 H        -4.049210        -2.582174         1.836667
