19
Iteration:  2801charge 0 multiplicity 1
 C         0.494485        -1.370377        -0.474626
 C        -0.613457        -0.606983         0.101001
 C        -1.553747         0.202898         0.055577
 C        -2.765512         1.059152         0.218078
 O        -2.519853         2.461007         0.271797
 C        -3.530479         0.650773         1.383224
 C        -4.226136        -0.615790         1.233982
 C        -4.332100        -1.310803         2.515708
 O        -5.033832        -0.858859         0.257839
 H         0.992362        -1.911441         0.365712
 H         0.092302        -2.144504        -1.152765
 H         1.230088        -0.891462        -1.146466
 H        -3.370558         0.881081        -0.657877
 H        -1.691567         2.565845         0.884782
 H        -2.930215         0.557477         2.253241
 H        -4.399195         1.352630         1.562449
 H        -4.842956        -0.525677         3.093544
 H        -4.855962        -2.288494         2.465042
 H        -3.322039        -1.148999         2.968747
