19
Iteration:  1345
 C         1.080847        -0.846866        -0.091331
 C        -0.173001        -0.130694         0.100851
 C        -1.299546         0.398899         0.107725
 C        -2.757730         0.940826         0.289259
 O        -2.863253         2.399650         0.348025
 C        -3.348012         0.093101         1.537779
 C        -4.431171        -0.872852         1.091352
 C        -5.353154        -1.245909         2.308804
 O        -4.679108        -1.063354        -0.072348
 H         1.533802        -0.557043        -1.019586
 H         1.616004        -0.701302         0.807888
 H         0.799927        -1.858893        -0.122070
 H        -3.223733         0.556917        -0.625694
 H        -3.838906         2.721042         0.317635
 H        -2.506498        -0.467470         1.928454
 H        -3.618554         0.846696         2.278896
 H        -5.651066        -2.347555         2.329086
 H        -5.109912        -0.677370         3.200084
 H        -6.200117        -0.752720         1.861086
