19
Iteration:  1297charge 0 multiplicity 1
 C         1.249422        -0.625241        -0.195283
 C        -0.177892        -0.154974         0.038185
 C        -1.257410         0.387814         0.314342
 C        -2.656949         0.703929         0.327321
 O        -2.768273         2.171146         0.242252
 C        -3.461570         0.159206         1.528130
 C        -4.560911        -0.678044         1.179184
 C        -5.508784        -1.301851         2.254925
 O        -4.756522        -0.927840        -0.012987
 H         1.517741        -0.141413        -1.115046
 H         1.802901        -0.360096         0.720862
 H         1.300216        -1.750382        -0.310436
 H        -3.016483         0.156752        -0.539191
 H        -3.551074         2.302356        -0.312134
 H        -2.842683        -0.588745         2.080279
 H        -3.720321         0.977335         2.244146
 H        -6.193349        -2.004212         1.846021
 H        -4.708574        -1.674299         2.929660
 H        -5.966076        -0.518020         2.928552
