19
Iteration:   777charge 0 multiplicity 1
 C         1.422549        -0.268172        -0.336282
 C         0.004894        -0.068907        -0.002150
 C        -1.132469         0.357792         0.142072
 C        -2.604163         0.556414         0.376422
 O        -3.001882         1.820922         0.915263
 C        -3.118629        -0.649651         1.264304
 C        -4.657621        -0.717792         1.078104
 C        -5.599554        -0.080241         1.998589
 O        -5.176436        -1.271437         0.094432
 H         2.051665         0.595381        -0.447156
 H         1.854583        -0.878913         0.450162
 H         1.549079        -0.931988        -1.202527
 H        -3.079723         0.502645        -0.609990
 H        -2.406254         2.486177         0.664890
 H        -2.759686        -1.517413         0.799665
 H        -2.781705        -0.552333         2.317967
 H        -5.366394         0.850780         2.553469
 H        -6.645864         0.002768         1.612632
 H        -5.631198        -0.754180         2.976818
