19
Iteration:  3080
 C         0.663792        -1.105634        -0.683395
 C        -0.489549        -0.326010        -0.251042
 C        -1.602567         0.057132        -0.051081
 C        -2.760764         0.868590         0.249244
 O        -2.460382         2.241042         0.251801
 C        -3.407848         0.522724         1.556875
 C        -4.347410        -0.628057         1.440455
 C        -5.136203        -0.957320         2.715318
 O        -4.551852        -1.060387         0.331263
 H         1.025613        -1.970397        -0.119110
 H         0.407610        -1.323864        -1.742718
 H         1.460707        -0.399665        -0.915071
 H        -3.484326         0.684751        -0.477869
 H        -1.675222         2.413166         0.711056
 H        -2.705949         0.398792         2.389309
 H        -3.991139         1.427640         1.831825
 H        -4.953180        -0.349683         3.635356
 H        -6.157974        -0.705201         2.330338
 H        -5.021760        -2.073775         2.819306
