19
Iteration:  2426
 C         0.443656        -1.373271         0.161795
 C        -0.615945        -0.365642         0.043127
 C        -1.667365         0.317807        -0.088873
 C        -2.824535         1.121038         0.146736
 O        -2.426148         2.513310         0.180404
 C        -3.601995         0.757567         1.369761
 C        -4.350018        -0.587821         1.203842
 C        -3.844275        -1.883759         2.080957
 O        -5.278556        -0.790422         0.396491
 H         0.800590        -1.146080         1.141369
 H         0.042806        -2.335580         0.297946
 H         1.209000        -1.448390        -0.549187
 H        -3.543829         1.146352        -0.606338
 H        -1.507597         2.557285         0.445308
 H        -3.031926         0.916543         2.282445
 H        -4.361865         1.472542         1.433210
 H        -3.392557        -1.231824         2.822479
 H        -4.512459        -2.602771         2.513140
 H        -3.194748        -2.524687         1.483364
