19
Iteration:  4041charge 0 multiplicity 1
 C         0.787344        -1.221359         0.207800
 C        -0.535649        -0.614224         0.050084
 C        -1.457735         0.157367         0.226487
 C        -2.706107         0.901004         0.159396
 O        -2.373756         2.164336        -0.371406
 C        -3.723030         0.859922         1.501199
 C        -4.574909        -0.420614         1.325595
 C        -3.712520        -1.733795         1.481015
 O        -5.757514        -0.458753         1.119034
 H         1.352646        -1.135552        -0.772705
 H         1.315681        -0.659437         0.970918
 H         0.693697        -2.251483         0.445665
 H        -3.237416         0.415818        -0.777908
 H        -3.107577         2.823060        -0.086230
 H        -3.284196         0.971796         2.502085
 H        -4.457849         1.650659         1.365314
 H        -2.966805        -1.706005         0.694368
 H        -3.121712        -1.692279         2.425730
 H        -4.317347        -2.651930         1.378487
