19
Iteration:   128charge 0 multiplicity 1
 C         1.517428         0.096621         0.073277
 C         0.068047         0.092906         0.085958
 C        -1.102041        -0.163388        -0.138681
 C        -2.564609        -0.033096         0.008955
 O        -2.980882         1.276984        -0.408214
 C        -3.155146        -0.511520         1.379167
 C        -4.756079        -0.347712         1.483952
 C        -5.599169        -1.572557         1.534437
 O        -5.251198         0.794278         1.552692
 H         1.907952         0.464153         1.096346
 H         1.998969        -0.900235        -0.134181
 H         1.873786         0.955142        -0.526005
 H        -3.038147        -0.653005        -0.876489
 H        -3.528988         1.727083         0.382998
 H        -2.819453        -1.654958         1.308628
 H        -2.658357         0.023380         2.170284
 H        -5.501675        -2.010924         2.625874
 H        -6.651095        -1.302166         1.172670
 H        -5.058335        -2.314610         0.876372
