19
Iteration:  2890charge 0 multiplicity 1
 C         0.613783        -1.058602        -0.360031
 C        -0.589510        -0.291035        -0.381245
 C        -1.765846         0.007899        -0.143693
 C        -2.841949         0.928867         0.118788
 O        -2.206886         2.184101         0.269815
 C        -3.538594         0.590273         1.537483
 C        -4.413375        -0.562817         1.344991
 C        -4.689613        -1.277389         2.706299
 O        -4.794944        -0.856167         0.266284
 H         0.638404        -1.468469         0.670067
 H         0.642256        -1.851388        -1.134905
 H         1.560185        -0.442783        -0.432590
 H        -3.559565         0.966907        -0.662684
 H        -1.265154         2.009751         0.666083
 H        -2.887991         0.508152         2.376937
 H        -4.247125         1.357838         2.010976
 H        -5.102245        -0.519645         3.461147
 H        -5.509320        -2.037611         2.783540
 H        -3.807649        -1.635970         3.301823
