19
Iteration:   848
 C         1.510058        -0.069037        -0.032588
 C         0.073543         0.148190         0.045806
 C        -1.127626         0.212780         0.167164
 C        -2.570194         0.391613         0.200290
 O        -2.977779         1.653635         0.734674
 C        -3.195997        -0.928740         0.929162
 C        -4.709479        -0.656294         1.004225
 C        -5.325051        -0.067106         2.235769
 O        -5.549663        -1.035594         0.202663
 H         2.175434         0.823505        -0.249657
 H         1.870187        -0.471390         0.952720
 H         1.661334        -0.910192        -0.736140
 H        -2.895098         0.593015        -0.836184
 H        -2.187022         2.129056         1.039831
 H        -2.931820        -1.814972         0.238216
 H        -2.823316        -0.952221         1.953561
 H        -5.339855         1.047184         2.148301
 H        -6.407479        -0.270164         2.261508
 H        -4.850504        -0.290907         3.149517
