19
Iteration:  4705charge 0 multiplicity 1
 C         0.584615        -1.274462        -0.695234
 C        -0.647393        -0.608650        -0.164865
 C        -1.629518         0.107712        -0.148649
 C        -2.720351         1.113028         0.071237
 O        -2.353984         2.454403         0.437451
 C        -3.619582         0.717410         1.322427
 C        -4.341623        -0.633167         1.516947
 C        -4.941136        -1.054976         2.780959
 O        -4.491537        -1.254454         0.415309
 H         1.429829        -0.772842        -0.067601
 H         0.685365        -2.352222        -0.470505
 H         0.680442        -1.082042        -1.757700
 H        -3.290896         1.103172        -0.799944
 H        -1.850584         3.024092        -0.258990
 H        -2.881863         0.555344         2.148370
 H        -4.193244         1.586926         1.478842
 H        -4.240095        -1.248106         3.624567
 H        -5.670287        -0.294791         3.095066
 H        -5.616949        -1.955088         2.687313
