19
Iteration:  3417charge 0 multiplicity 1
 C         0.408153        -1.185623        -0.289181
 C        -0.875708        -0.498026        -0.168267
 C        -1.985373         0.091785        -0.326383
 C        -2.851357         1.214674         0.074151
 O        -2.032055         2.376359         0.470179
 C        -3.596341         0.714678         1.335947
 C        -4.323498        -0.583515         1.332792
 C        -4.653460        -1.217930         2.663632
 O        -4.452614        -1.278297         0.343674
 H         0.514096        -2.238989         0.067206
 H         0.815515        -1.118907        -1.330670
 H         1.103014        -0.687654         0.420404
 H        -3.481157         1.500490        -0.758285
 H        -1.633090         2.713197        -0.293555
 H        -2.917763         0.580968         2.165120
 H        -4.306440         1.491533         1.695650
 H        -3.654972        -1.401224         3.172294
 H        -5.290444        -0.447751         3.218679
 H        -5.121050        -2.225516         2.656687
