19
Iteration:  4851charge 0 multiplicity 1
 C         0.665996        -1.164654        -0.942021
 C        -0.485398        -0.410952        -0.396910
 C        -1.433966         0.241190        -0.045115
 C        -2.748331         0.943364         0.241852
 O        -2.527368         2.370329         0.390390
 C        -3.349194         0.430936         1.681381
 C        -4.370521        -0.717505         1.452158
 C        -5.367239        -0.539390         2.568397
 O        -4.441692        -1.522341         0.577916
 H         1.634010        -1.019239        -0.370381
 H         0.379923        -2.237337        -0.966674
 H         0.756456        -0.848438        -2.026128
 H        -3.412694         0.728425        -0.584916
 H        -1.620374         2.568260         0.448262
 H        -2.582899         0.195914         2.383325
 H        -3.930460         1.358571         1.952071
 H        -4.790360        -0.345325         3.491349
 H        -6.202360         0.262130         2.440329
 H        -5.915586        -1.469921         2.544725
