19
Iteration:   731
 C         1.272568        -0.385645        -0.411236
 C        -0.050275         0.167644        -0.158091
 C        -1.217194         0.231067         0.183953
 C        -2.583422         0.525180         0.416645
 O        -2.670849         1.910051         0.934606
 C        -3.229634        -0.421262         1.480094
 C        -4.667924        -0.690008         1.028586
 C        -5.695911        -0.178079         1.942663
 O        -4.987702        -1.393448         0.074391
 H         1.946237         0.451225        -0.428664
 H         1.700882        -1.099331         0.312445
 H         1.343295        -0.854174        -1.414011
 H        -3.147282         0.281677        -0.498419
 H        -3.583200         2.024057         1.058070
 H        -2.640940        -1.354095         1.518909
 H        -3.282269         0.063785         2.430092
 H        -5.556549         0.652606         2.681576
 H        -6.613930        -0.119734         1.307898
 H        -5.831449        -1.144585         2.617197
