19
Iteration:  3143
 C         0.729852        -1.008052        -0.549430
 C        -0.652646        -0.561375        -0.454503
 C        -1.590433         0.221111        -0.269384
 C        -2.734320         1.071182         0.094565
 O        -2.111304         2.463021         0.534306
 C        -3.501491         0.565828         1.327439
 C        -4.561687        -0.736726         1.409051
 C        -5.154206        -0.933699         2.757460
 O        -4.694230        -1.481640         0.525619
 H         1.214559        -1.726920         0.126608
 H         0.831362        -1.422610        -1.597127
 H         1.410148        -0.090788        -0.535062
 H        -3.351375         1.414553        -0.783654
 H        -1.216156         2.256613         0.432024
 H        -2.758523         0.139970         1.998959
 H        -3.873201         1.563284         1.744091
 H        -4.548240        -0.520282         3.558737
 H        -6.141020        -0.580574         2.999212
 H        -5.363824        -1.994797         2.827875
