19
Iteration:  1204charge 0 multiplicity 1
 C         1.453312        -0.129357        -0.079611
 C        -0.020728        -0.132568         0.094876
 C        -1.225621         0.074920         0.196003
 C        -2.645851         0.466598         0.342717
 O        -2.684063         1.973758        -0.002929
 C        -3.350330        -0.124557         1.523940
 C        -4.706772        -0.683154         1.104086
 C        -5.418437        -1.138840         2.341304
 O        -5.353220        -0.721635         0.055738
 H         1.850035         0.468928        -0.975938
 H         1.892737         0.177258         0.868569
 H         1.859258        -1.119476        -0.182030
 H        -3.251567         0.187019        -0.460406
 H        -2.227897         2.344173         0.798326
 H        -2.561834        -0.702891         2.009396
 H        -3.542612         0.638246         2.255367
 H        -6.270808        -0.514041         2.612209
 H        -5.648150        -2.176436         2.218810
 H        -4.819372        -1.163106         3.217645
