19
Iteration:  1753charge 0 multiplicity 1
 C         0.375604        -1.289075        -0.050105
 C        -0.530565        -0.220804         0.173411
 C        -1.581706         0.334900         0.249251
 C        -2.803479         1.171701         0.230503
 O        -2.501778         2.538103         0.529611
 C        -3.831739         0.748360         1.408033
 C        -4.328637        -0.707761         1.024522
 C        -4.371168        -1.701189         2.165742
 O        -4.573143        -1.089046        -0.122389
 H         1.149383        -1.155365        -0.909639
 H         1.000840        -1.736209         0.778983
 H        -0.250799        -2.109802        -0.493431
 H        -3.321123         1.082628        -0.723332
 H        -1.721876         2.656148         1.215490
 H        -3.083349         0.967421         2.215602
 H        -4.816437         1.344884         1.460359
 H        -3.655657        -2.509149         1.834366
 H        -4.150269        -1.417376         3.205219
 H        -5.356820        -2.146349         1.989081
