19
Iteration:  1508
 C         0.791853        -0.788597        -0.187303
 C        -0.532975        -0.360590         0.038445
 C        -1.547851         0.270257         0.318952
 C        -2.780667         1.059910         0.372149
 O        -2.351323         2.352841         0.417293
 C        -3.923620         0.628723         1.403865
 C        -4.456156        -0.673429         1.131911
 C        -4.952551        -1.638915         2.150520
 O        -4.444618        -1.144216        -0.011401
 H         1.366292        -0.417788        -1.082213
 H         1.353666        -0.626050         0.767119
 H         0.909164        -1.928580        -0.128254
 H        -3.243240         1.000564        -0.591909
 H        -1.454115         2.425759         0.576339
 H        -3.713423         0.898447         2.458980
 H        -4.659373         1.418653         1.047429
 H        -5.036645        -1.290828         3.221596
 H        -5.908887        -2.099653         1.925630
 H        -4.312290        -2.508433         2.075205
