19
Iteration:  1659charge 0 multiplicity 1
 C         0.401109        -1.246327         0.167575
 C        -0.630460        -0.222697         0.080679
 C        -1.664693         0.373434        -0.088826
 C        -2.867490         1.264736         0.275141
 O        -2.549602         2.581541         0.501415
 C        -3.538717         0.518216         1.452401
 C        -4.258231        -0.797664         0.997123
 C        -4.611916        -1.744244         2.240478
 O        -4.437260        -0.972403        -0.160112
 H         1.146831        -1.086891        -0.598329
 H         1.061990        -1.228690         1.039436
 H         0.067279        -2.288790        -0.064070
 H        -3.426144         1.328496        -0.753435
 H        -2.036701         2.605668         1.273784
 H        -2.822523         0.184736         2.220043
 H        -4.314051         1.122845         1.908244
 H        -5.407707        -2.500229         1.918723
 H        -3.642791        -2.223595         2.481975
 H        -5.053881        -1.205604         3.107680
