19
Iteration:  2040
 C         0.425788        -1.529698         0.326659
 C        -0.656403        -0.459819         0.326815
 C        -1.479607         0.482855         0.212676
 C        -2.698946         1.167038         0.182625
 O        -2.776483         2.589168         0.212817
 C        -3.729271         0.682242         1.344624
 C        -4.236979        -0.676337         1.043394
 C        -3.625509        -1.908476         1.656936
 O        -5.270142        -0.596885         0.361778
 H         1.482103        -1.224049         0.404174
 H         0.161702        -2.244390         1.153451
 H         0.330850        -2.126815        -0.642117
 H        -3.260965         0.784904        -0.749446
 H        -1.908508         2.913568        -0.045602
 H        -3.138642         0.628720         2.306121
 H        -4.460571         1.518402         1.281699
 H        -3.519594        -2.746865         0.955230
 H        -2.778395        -1.906605         2.330493
 H        -4.449178        -2.351473         2.204441
