19
Iteration:  4324
 C         0.901159        -1.280879        -0.025445
 C        -0.354584        -0.508546         0.005886
 C        -1.373013         0.142406         0.183715
 C        -2.609093         0.939891         0.079539
 O        -2.358155         2.321578        -0.080741
 C        -3.850710         0.838573         1.206154
 C        -4.697068        -0.529314         1.363005
 C        -3.905154        -1.669390         1.812616
 O        -5.893117        -0.582189         1.068540
 H         1.928920        -0.785343        -0.298888
 H         1.040745        -1.635004         1.025465
 H         0.833437        -2.169445        -0.644344
 H        -3.001421         0.609591        -0.940121
 H        -1.412146         2.681835         0.077154
 H        -3.429725         0.870761         2.251435
 H        -4.528174         1.673742         0.966560
 H        -3.055932        -1.811865         1.071107
 H        -3.520765        -1.649832         2.842949
 H        -4.487846        -2.609310         1.867995
