19
Iteration:  3866
 C         0.474086        -1.498117         0.100849
 C        -0.688053        -0.587174         0.349233
 C        -1.597090         0.247894         0.229808
 C        -2.799021         1.105354         0.122481
 O        -2.373114         2.403156        -0.346384
 C        -3.677863         0.955409         1.381955
 C        -4.327347        -0.517723         1.314718
 C        -3.588101        -1.777178         1.753797
 O        -5.475902        -0.664969         0.887516
 H         0.321887        -1.616746        -1.031761
 H         1.422345        -0.959566         0.222368
 H         0.408995        -2.460311         0.556739
 H        -3.418156         0.690349        -0.662581
 H        -3.155192         2.974090        -0.305050
 H        -3.142802         0.994523         2.326374
 H        -4.488086         1.717223         1.309088
 H        -3.233477        -2.112233         0.836518
 H        -2.750461        -1.496217         2.381007
 H        -4.230405        -2.485968         2.200923
