19
Iteration:  1895
 C         0.474465        -1.155723         0.098234
 C        -0.778492        -0.497177         0.162328
 C        -1.801347         0.175658         0.198895
 C        -2.820636         1.223663         0.235262
 O        -2.213147         2.446313         0.623013
 C        -3.967842         0.761109         1.239946
 C        -4.375778        -0.739743         0.982377
 C        -3.888371        -1.529324         2.059812
 O        -4.979643        -1.052560        -0.047791
 H         1.184699        -0.357539        -0.249368
 H         0.813639        -1.346080         1.131497
 H         0.611347        -1.889136        -0.716195
 H        -3.228787         1.437709        -0.790656
 H        -1.207089         2.323517         0.803321
 H        -3.441294         0.798236         2.218344
 H        -4.880763         1.430898         1.123805
 H        -4.296054        -1.233924         3.043688
 H        -4.053518        -2.559906         1.781691
 H        -2.808813        -1.585258         2.235042
