19
Iteration:  1879charge 0 multiplicity 1
 C         0.538339        -1.120345         0.051535
 C        -0.691658        -0.407422         0.187048
 C        -1.811397         0.151976         0.140887
 C        -2.850437         1.173919         0.251762
 O        -2.210205         2.443689         0.661352
 C        -3.980919         0.874440         1.181743
 C        -4.456754        -0.580266         0.983011
 C        -3.957948        -1.657829         2.102414
 O        -4.894704        -1.146700         0.002185
 H         1.411725        -0.698631        -0.447125
 H         0.823934        -1.635599         0.965519
 H         0.237412        -1.942391        -0.620336
 H        -3.290079         1.215766        -0.754966
 H        -1.362222         2.062368         1.103064
 H        -3.719148         0.889330         2.230887
 H        -4.655502         1.654596         0.903519
 H        -4.083127        -1.192256         3.087225
 H        -4.515184        -2.622199         1.911481
 H        -2.920562        -1.512149         1.734917
