19
Iteration:  1568charge 0 multiplicity 1
 C         0.674956        -1.026734        -0.158126
 C        -0.523463        -0.335659         0.238425
 C        -1.472918         0.433357         0.247733
 C        -2.762000         1.030404         0.227426
 O        -2.512458         2.426633         0.769997
 C        -3.766487         0.606221         1.191149
 C        -4.355404        -0.780035         1.002875
 C        -4.694185        -1.496561         2.232798
 O        -4.648349        -1.212306        -0.133937
 H         1.088615        -0.588898        -1.066918
 H         1.410792        -0.857245         0.641457
 H         0.429928        -2.068681        -0.316816
 H        -3.320032         1.004838        -0.745184
 H        -2.096208         2.793490        -0.059127
 H        -3.328703         0.691450         2.184343
 H        -4.494519         1.416899         1.106309
 H        -5.688759        -1.071491         2.566496
 H        -4.839810        -2.614539         2.122059
 H        -4.055938        -1.133429         3.118200
