19
Iteration:   681
 C         1.287175        -0.314376        -0.587931
 C        -0.094089        -0.171868        -0.145860
 C        -1.176280         0.262200         0.229390
 C        -2.593822         0.642760         0.455125
 O        -2.673264         2.057699         0.895122
 C        -3.272966        -0.372263         1.493822
 C        -4.718243        -0.679395         1.105784
 C        -5.967710        -0.357180         1.933947
 O        -4.746482        -1.382495         0.096104
 H         2.012054         0.512929        -0.365289
 H         1.682962        -1.188918        -0.033912
 H         1.312947        -0.732763        -1.607900
 H        -3.217282         0.433894        -0.423156
 H        -2.248723         1.944685         1.876854
 H        -2.712920        -1.292028         1.584789
 H        -3.392276         0.271314         2.456781
 H        -5.922873         0.704509         2.115090
 H        -6.813165        -0.697699         1.334626
 H        -5.817388        -0.723862         2.909485
