19
Iteration:  1885charge 0 multiplicity 1
 C         0.514956        -1.122958         0.069603
 C        -0.776426        -0.417392         0.170592
 C        -1.809328         0.162518         0.166684
 C        -2.809644         1.151817         0.243853
 O        -2.198879         2.455234         0.648488
 C        -3.960912         0.789505         1.197960
 C        -4.431962        -0.568252         0.958239
 C        -3.925248        -1.612269         2.069542
 O        -4.929308        -1.129658        -0.015443
 H         1.293090        -0.418388        -0.302895
 H         0.893211        -1.671433         0.979198
 H         0.350777        -2.070018        -0.532928
 H        -3.250994         1.253690        -0.770145
 H        -1.271589         2.215192         0.967330
 H        -3.639836         0.939549         2.259340
 H        -4.890498         1.481734         1.203261
 H        -4.181966        -1.304932         3.105276
 H        -4.313602        -2.605254         2.011212
 H        -2.837347        -1.441358         1.939824
