19
Iteration:     2charge 0 multiplicity 1
 C         1.502141         0.190865         0.026456
 C         0.061418         0.020350         0.046745
 C        -1.139605        -0.138021         0.048953
 C        -2.602924        -0.264412         0.080829
 O        -3.244961         0.684533        -0.760103
 C        -3.126191        -0.168607         1.521022
 C        -4.651235        -0.134285         1.607343
 C        -5.422562        -1.186848         0.830976
 O        -5.208470         0.686487         2.286511
 H         1.911380         0.249704         1.031884
 H         1.970588        -0.651208        -0.503454
 H         1.795839         1.101773        -0.535483
 H        -2.898775        -1.265768        -0.307315
 H        -2.897568         1.538416        -0.570281
 H        -2.768330        -0.990792         2.094856
 H        -2.770490         0.747673         2.036136
 H        -5.001535        -2.158351         1.023219
 H        -6.454595        -1.215266         1.151034
 H        -5.381785        -0.937010        -0.231926
