19
Iteration:  1285charge 0 multiplicity 1
 C         1.221797        -0.567440        -0.180052
 C        -0.054625        -0.091062         0.019533
 C        -1.211550         0.235295         0.346419
 C        -2.669077         0.763018         0.382398
 O        -2.766778         2.177671         0.169201
 C        -3.387027         0.087651         1.613496
 C        -4.687620        -0.713675         1.131798
 C        -5.469468        -1.265734         2.306559
 O        -4.847646        -0.927052        -0.053835
 H         1.716950        -0.144517        -1.072752
 H         2.050129        -0.295838         0.517249
 H         1.237154        -1.681745        -0.388343
 H        -3.154292         0.392523        -0.516747
 H        -3.369708         2.415930        -0.519176
 H        -2.662098        -0.338737         2.351943
 H        -3.883588         0.902898         2.188918
 H        -6.295520        -1.807872         1.835003
 H        -5.011135        -2.101567         2.827291
 H        -5.971373        -0.548019         2.991689
