19
Iteration:   873
 C         1.552464         0.039444         0.091968
 C         0.103463         0.055607         0.091548
 C        -1.101158         0.201704         0.004951
 C        -2.544167         0.303926         0.078945
 O        -2.877409         1.498025         0.798741
 C        -3.336610        -0.763521         0.827847
 C        -4.847157        -0.687103         1.085189
 C        -5.253545        -0.046890         2.414900
 O        -5.556517        -0.998754         0.106405
 H         1.980154         1.004196        -0.196289
 H         1.921932        -0.213193         1.125281
 H         1.962845        -0.771564        -0.589346
 H        -2.860918         0.585996        -0.958617
 H        -3.111989         2.318337         0.220806
 H        -3.167051        -1.674087         0.261978
 H        -2.846314        -0.816495         1.825566
 H        -5.356467         0.999867         2.273091
 H        -6.258093        -0.293865         2.740471
 H        -4.499959        -0.226116         3.187269
