19
Iteration:   589charge 0 multiplicity 1
 C         1.246376        -0.529267        -0.631960
 C        -0.102158        -0.026449        -0.191634
 C        -1.219091         0.139721         0.269857
 C        -2.604186         0.670954         0.476004
 O        -2.572821         2.114605         0.857471
 C        -3.270862        -0.161764         1.617687
 C        -4.627821        -0.643766         1.102008
 C        -5.996425        -0.693448         2.020055
 O        -4.716480        -1.209206         0.047253
 H         1.928672         0.213899        -0.290511
 H         1.494080        -1.499149        -0.217017
 H         1.247014        -0.574500        -1.720576
 H        -3.028240         0.722215        -0.535794
 H        -3.510772         2.261076         1.276181
 H        -2.539404        -0.985590         1.806229
 H        -3.353037         0.498278         2.452017
 H        -6.595160         0.178349         1.750451
 H        -6.520557        -1.440980         1.458008
 H        -5.854275        -0.770065         3.123538
