19
Iteration:   172
 C         1.415219        -0.016404         0.057666
 C         0.022314        -0.099098         0.050558
 C        -1.153236         0.030741         0.142762
 C        -2.525313         0.088268        -0.025077
 O        -2.980795         1.468459        -0.220954
 C        -3.183627        -0.435344         1.216552
 C        -4.673872        -0.379546         1.360744
 C        -5.472775        -1.668719         1.693701
 O        -5.248247         0.690566         1.378556
 H         1.783507         0.357298         1.088329
 H         1.874200        -1.037701        -0.123318
 H         1.759816         0.706370        -0.711638
 H        -2.897286        -0.507857        -0.931634
 H        -3.459370         1.410660        -1.141368
 H        -2.745889        -1.492065         1.495097
 H        -2.952288         0.222406         2.045759
 H        -5.546697        -1.974133         2.824639
 H        -6.542088        -1.664563         1.331891
 H        -5.039129        -2.586873         1.178203
