19
Iteration:   612charge 0 multiplicity 1
 C         1.208960        -0.423423        -0.653279
 C        -0.095694        -0.056550        -0.129224
 C        -1.224290         0.259189         0.223357
 C        -2.572193         0.618420         0.573060
 O        -2.612809         2.011323         0.832708
 C        -3.355305        -0.151556         1.647141
 C        -4.657342        -0.693692         1.073415
 C        -5.923009        -0.575319         1.956622
 O        -4.729842        -1.293457         0.024669
 H         2.036409         0.195354        -0.401895
 H         1.354196        -1.404696        -0.196429
 H         1.098319        -0.664704        -1.722534
 H        -3.087146         0.663129        -0.404784
 H        -2.073304         2.136283         1.604764
 H        -2.826604        -1.109776         1.801008
 H        -3.319557         0.502733         2.496742
 H        -6.302179         0.353494         1.606905
 H        -6.624847        -1.371427         1.732804
 H        -5.607430        -0.354555         2.991009
