19
Iteration:  1389charge 0 multiplicity 1
 C         0.891382        -0.959232         0.071907
 C        -0.243213        -0.038111        -0.115655
 C        -1.263670         0.633568        -0.025224
 C        -2.708667         0.955198         0.206258
 O        -2.759321         2.381224         0.610217
 C        -3.378836         0.252718         1.464551
 C        -4.507751        -0.725147         1.045643
 C        -5.262617        -1.299740         2.241776
 O        -4.668627        -1.349091         0.006349
 H         1.506435        -0.859024        -0.805239
 H         1.407252        -0.918515         0.989298
 H         0.607422        -1.967068         0.101140
 H        -3.266144         0.713078        -0.672565
 H        -2.958483         2.799260        -0.309933
 H        -2.856328        -0.534266         2.002605
 H        -3.831095         0.941768         2.165831
 H        -4.644013        -2.207451         2.525240
 H        -5.449141        -0.633799         3.088140
 H        -6.247881        -1.496086         1.884209
