19
Iteration:   485
 C         1.173140        -0.676769        -0.338641
 C        -0.161868        -0.160944        -0.077839
 C        -1.202892         0.419067         0.043872
 C        -2.513046         0.736592         0.381145
 O        -2.660018         2.195067         0.721555
 C        -3.261384        -0.053735         1.538050
 C        -4.670270        -0.655496         1.112653
 C        -5.532827        -1.159666         2.223428
 O        -5.079425        -0.941631        -0.028231
 H         1.938806        -0.098390         0.238566
 H         1.295885        -1.726782        -0.017984
 H         1.398079        -0.594735        -1.425537
 H        -3.142719         0.676186        -0.509051
 H        -2.357162         2.646163        -0.052035
 H        -2.752530        -0.952483         1.797128
 H        -3.536831         0.587632         2.433042
 H        -5.695665        -0.230482         2.879209
 H        -6.374690        -1.572215         1.645203
 H        -5.185876        -1.998429         2.840282
