19
Iteration:   325charge 0 multiplicity 1
 C         1.325181        -0.583696        -0.029300
 C        -0.027607        -0.074571         0.036940
 C        -1.214445         0.157611         0.146258
 C        -2.623635         0.559304         0.130241
 O        -2.790029         1.956544         0.172415
 C        -3.339195        -0.132307         1.359641
 C        -4.721218        -0.532153         1.255020
 C        -5.064691        -1.793909         2.042814
 O        -5.460576         0.137105         0.536925
 H         1.879270        -0.160807         0.861783
 H         1.423555        -1.695321         0.001805
 H         1.752673        -0.355990        -1.018476
 H        -3.212073         0.221582        -0.740540
 H        -3.080443         2.168712        -0.730103
 H        -2.558538        -0.833394         1.872188
 H        -3.394180         0.722124         2.022403
 H        -4.529518        -1.821647         3.027761
 H        -6.096427        -2.129346         2.006717
 H        -4.483344        -2.602456         1.568654
