19
Iteration:  2136
 C         0.678565        -1.116402         0.354160
 C        -0.700053        -0.567216         0.144054
 C        -1.701807         0.114436         0.040889
 C        -2.747211         1.171006        -0.033532
 O        -2.288832         2.446198         0.458342
 C        -3.799396         0.717464         1.122042
 C        -4.410014        -0.585490         1.133310
 C        -3.723526        -1.772337         1.640096
 O        -5.535745        -0.763197         0.625517
 H         1.406816        -0.379952         0.605232
 H         0.558762        -1.925408         1.052590
 H         1.090725        -1.453795        -0.595583
 H        -3.420703         1.252188        -0.885823
 H        -1.297889         2.347296         0.651909
 H        -3.371182         0.799889         2.106518
 H        -4.633347         1.404861         1.003754
 H        -2.656782        -1.591667         2.079841
 H        -4.425153        -2.156391         2.473608
 H        -3.520692        -2.569052         0.877062
