19
Iteration:   484charge 0 multiplicity 1
 C         1.175744        -0.673331        -0.332798
 C        -0.162168        -0.167866        -0.081791
 C        -1.202344         0.418491         0.043439
 C        -2.515843         0.733011         0.383834
 O        -2.670103         2.200799         0.720623
 C        -3.265244        -0.053061         1.531525
 C        -4.661456        -0.658662         1.115952
 C        -5.525572        -1.164668         2.222208
 O        -5.090612        -0.936407        -0.027718
 H         1.964184        -0.117176         0.230637
 H         1.274213        -1.736267        -0.002369
 H         1.432390        -0.599146        -1.436108
 H        -3.126463         0.674689        -0.514126
 H        -2.266405         2.656390        -0.059397
 H        -2.700145        -0.915160         1.803811
 H        -3.506990         0.603222         2.458197
 H        -5.722899        -0.249156         2.867159
 H        -6.380721        -1.549807         1.642750
 H        -5.188325        -2.024677         2.848479
