19
Iteration:  1194
 C         1.385979        -0.115270         0.024543
 C        -0.032900        -0.099492         0.037053
 C        -1.204328         0.091563         0.158648
 C        -2.617873         0.464307         0.227560
 O        -2.641812         1.914501         0.006248
 C        -3.250787        -0.148351         1.496659
 C        -4.766591        -0.714540         1.162279
 C        -5.453721        -1.131078         2.383786
 O        -5.322709        -0.671483         0.082958
 H         1.574340         0.606668        -0.862614
 H         1.863982         0.401071         0.858974
 H         1.755532        -1.094636        -0.220678
 H        -3.162763        -0.008334        -0.549551
 H        -2.468071         2.379279         0.902905
 H        -2.607324        -0.954009         1.959553
 H        -3.549275         0.539898         2.263848
 H        -6.318148        -0.493917         2.646193
 H        -5.941973        -2.021622         2.077524
 H        -4.714171        -1.238183         3.098741
