19
Iteration:  3673charge 0 multiplicity 1
 C         0.421539        -1.120628         0.089721
 C        -0.872445        -0.544922        -0.220314
 C        -2.047364        -0.133103        -0.272326
 C        -2.917772         1.051732        -0.013205
 O        -2.066072         2.316548         0.151584
 C        -3.632162         0.816523         1.380891
 C        -4.208328        -0.579654         1.344476
 C        -3.895389        -1.467020         2.468667
 O        -5.095258        -0.770649         0.433991
 H         0.476977        -2.099382        -0.475788
 H         1.182129        -0.381592        -0.219643
 H         0.451534        -1.378106         1.191693
 H        -3.617892         1.404320        -0.852343
 H        -1.582982         2.164454         0.926799
 H        -2.922705         1.021141         2.222029
 H        -4.516667         1.490059         1.381783
 H        -2.772504        -1.400450         2.666803
 H        -4.347986        -1.115531         3.477371
 H        -4.228386        -2.533103         2.468779
