19
Iteration:  3401charge 0 multiplicity 1
 C         0.406772        -1.195192        -0.361405
 C        -0.788930        -0.457858        -0.145796
 C        -1.854737         0.147430        -0.367123
 C        -2.819151         1.065378         0.078651
 O        -2.194921         2.280900         0.563655
 C        -3.621722         0.770503         1.346399
 C        -4.227779        -0.651674         1.364922
 C        -4.671565        -1.065330         2.733007
 O        -4.448074        -1.258438         0.232738
 H         0.138568        -2.186070         0.014331
 H         0.474503        -1.138771        -1.430053
 H         1.310404        -0.849531         0.156377
 H        -3.596887         1.313270        -0.738249
 H        -1.503840         2.486955        -0.097890
 H        -2.914467         1.005134         2.204787
 H        -4.457355         1.472155         1.538365
 H        -3.881066        -1.421220         3.384450
 H        -5.231181        -0.333939         3.273353
 H        -5.378252        -1.901887         2.675815
