19
Iteration:  3395charge 0 multiplicity 1
 C         0.454953        -1.236931        -0.413135
 C        -0.786736        -0.421840        -0.162722
 C        -1.800793         0.187304        -0.324338
 C        -2.882414         1.068035         0.112660
 O        -2.257330         2.251746         0.578074
 C        -3.589093         0.745885         1.324061
 C        -4.230412        -0.652765         1.308842
 C        -4.690495        -1.043131         2.745890
 O        -4.430438        -1.226563         0.271205
 H         0.212787        -2.229213         0.026266
 H         0.553499        -1.341284        -1.531525
 H         1.378389        -1.007109         0.145334
 H        -3.507797         1.246855        -0.740984
 H        -1.435134         2.387362        -0.037383
 H        -3.057344         1.068539         2.201431
 H        -4.512663         1.382144         1.367720
 H        -3.923763        -1.515128         3.422514
 H        -5.204482        -0.124515         3.190677
 H        -5.453454        -1.861568         2.781737
