19
Iteration:   461charge 0 multiplicity 1
 C         1.255953        -0.754271        -0.263824
 C        -0.117784        -0.130492        -0.161830
 C        -1.240478         0.302564         0.150164
 C        -2.653992         0.833837         0.263160
 O        -2.751371         2.218358         0.606432
 C        -3.275107        -0.061843         1.429694
 C        -4.636931        -0.757594         1.142248
 C        -5.478662        -1.275298         2.307210
 O        -5.072324        -0.710889        -0.010789
 H         1.922756        -0.129447         0.365213
 H         1.355456        -1.807240         0.106952
 H         1.683692        -0.624911        -1.319818
 H        -3.270548         0.803084        -0.638672
 H        -1.966267         2.430542         1.179993
 H        -2.592922        -0.815397         1.768375
 H        -3.640005         0.600566         2.294598
 H        -5.534167        -0.434964         3.015252
 H        -6.413936        -1.745159         1.968421
 H        -4.883281        -2.091735         2.827861
