19
Iteration:   413
 C         1.172417        -0.673682        -0.118487
 C        -0.150356        -0.165833         0.014432
 C        -1.280289         0.267239         0.016156
 C        -2.660182         0.685995         0.246492
 O        -2.691573         2.183443         0.503709
 C        -3.218473        -0.082931         1.446678
 C        -4.627217        -0.606164         1.135808
 C        -5.163930        -1.478602         2.204907
 O        -5.262625        -0.449104         0.123615
 H         1.921225        -0.221763         0.579698
 H         1.082772        -1.752345         0.120328
 H         1.524560        -0.519564        -1.158127
 H        -3.394340         0.477006        -0.604490
 H        -3.016448         2.596562        -0.255630
 H        -2.760503        -1.110322         1.762438
 H        -3.240731         0.633821         2.274764
 H        -5.340278        -0.812096         3.064442
 H        -6.119225        -1.877884         1.820023
 H        -4.533995        -2.316378         2.518495
