19
Iteration:   957
 C         1.428975         0.242689         0.480717
 C         0.022512         0.132374         0.058524
 C        -1.142975        -0.074412        -0.211284
 C        -2.594799         0.177530        -0.005443
 O        -2.893273         1.457193         0.485014
 C        -3.286509        -0.933016         0.820793
 C        -4.776657        -0.504938         1.057031
 C        -4.994315        -0.249895         2.483709
 O        -5.621156        -0.612917         0.204017
 H         1.729799         1.208350         0.026339
 H         1.660143         0.399249         1.538610
 H         2.072029        -0.480091        -0.000481
 H        -2.954352         0.162126        -1.066763
 H        -2.928473         1.425925         1.401051
 H        -3.438688        -1.828164         0.121417
 H        -2.664337        -1.393157         1.611097
 H        -4.814716         0.900248         2.645754
 H        -6.073423        -0.473933         2.677691
 H        -4.534339        -0.756111         3.309057
