19
Iteration:  4559
 C         0.303767        -1.519944         0.000996
 C        -0.799853        -0.578407        -0.354020
 C        -1.708911         0.220170        -0.078172
 C        -2.833889         1.101925         0.209285
 O        -2.462160         2.525163         0.085077
 C        -3.596007         0.847374         1.469633
 C        -4.245114        -0.545364         1.306030
 C        -4.002953        -1.483867         2.458683
 O        -4.822042        -0.883724         0.326533
 H         1.198402        -1.058135         0.426777
 H        -0.194235        -2.185949         0.766954
 H         0.536417        -2.178775        -0.923072
 H        -3.487615         1.050937        -0.600610
 H        -2.180514         2.759611         0.957762
 H        -2.917792         0.737782         2.294252
 H        -4.315898         1.636838         1.583382
 H        -2.929417        -1.818408         2.464112
 H        -4.246400        -1.097593         3.469732
 H        -4.596000        -2.416961         2.314979
