19
Iteration:  2768
 C         0.323651        -1.511709        -0.360606
 C        -0.534340        -0.428674        -0.155592
 C        -1.470448         0.326870         0.110763
 C        -2.642444         1.119542         0.254192
 O        -2.473023         2.552430         0.120985
 C        -3.631909         0.716979         1.407351
 C        -4.407816        -0.555617         1.360865
 C        -4.383368        -1.569315         2.501592
 O        -4.860207        -0.907943         0.301682
 H         0.633527        -1.900513         0.634870
 H        -0.276436        -2.326507        -0.788478
 H         1.232024        -1.369826        -0.943087
 H        -3.254186         0.873369        -0.579692
 H        -1.980738         2.862131         0.912252
 H        -3.168924         0.812770         2.353986
 H        -4.357692         1.570879         1.426698
 H        -4.474431        -1.335881         3.558053
 H        -4.988122        -2.495643         2.405980
 H        -3.343817        -1.979387         2.333503
