19
Iteration:  4064
 C         0.782509        -1.344662         0.103702
 C        -0.347506        -0.407172         0.175884
 C        -1.347231         0.267355         0.397184
 C        -2.698704         0.853847         0.193201
 O        -2.504349         2.162758        -0.442653
 C        -3.662315         0.803687         1.409928
 C        -4.565317        -0.440300         1.309257
 C        -3.816890        -1.731486         1.483561
 O        -5.820920        -0.436318         1.122205
 H         1.256155        -1.234147        -0.923094
 H         1.557561        -1.108162         0.823037
 H         0.481745        -2.366468         0.161713
 H        -2.936524         0.302981        -0.757563
 H        -3.300757         2.659864        -0.198960
 H        -3.036652         0.701864         2.313904
 H        -4.299473         1.655618         1.574054
 H        -3.047193        -1.888534         0.783475
 H        -3.380104        -1.573619         2.470236
 H        -4.529625        -2.585314         1.536025
