19
Iteration:  1329
 C         1.103867        -0.777676        -0.104742
 C        -0.253490        -0.194022         0.122451
 C        -1.323040         0.436683         0.144151
 C        -2.625058         0.825952         0.314418
 O        -2.874275         2.315186         0.313359
 C        -3.301547         0.135525         1.505260
 C        -4.440907        -0.737360         1.114657
 C        -5.415660        -1.220915         2.197220
 O        -4.711272        -1.043356        -0.008694
 H         1.568831        -0.319089        -1.032777
 H         1.924944        -0.474591         0.607496
 H         1.139593        -1.900418        -0.342106
 H        -3.289429         0.453756        -0.478818
 H        -3.825924         2.342137         0.359254
 H        -2.626763        -0.408718         2.205220
 H        -3.832788         0.797791         2.240442
 H        -5.586402        -2.265013         2.054496
 H        -4.855340        -1.229226         3.157994
 H        -6.439271        -0.780199         2.332468
