19
Iteration:   453
 C         1.215525        -0.731752        -0.230548
 C        -0.140704        -0.105735        -0.140140
 C        -1.270031         0.271539         0.114959
 C        -2.603360         0.772297         0.229284
 O        -2.732246         2.222837         0.567613
 C        -3.353793        -0.099786         1.440781
 C        -4.680056        -0.686902         1.117333
 C        -5.372328        -1.356726         2.358784
 O        -5.039312        -0.640031        -0.031931
 H         1.984765        -0.196187         0.350896
 H         1.229913        -1.767544         0.091541
 H         1.686744        -0.650332        -1.204987
 H        -3.092344         0.792831        -0.755512
 H        -2.425306         2.275884         1.555099
 H        -2.582198        -0.717015         1.853680
 H        -3.403238         0.570640         2.302746
 H        -5.645774        -0.479980         3.021552
 H        -6.406443        -1.605164         2.125171
 H        -4.824797        -2.113886         2.898186
