19
Iteration:   949charge 0 multiplicity 1
 C         1.439346         0.292865         0.439035
 C         0.021750         0.104774         0.048562
 C        -1.177904        -0.054018        -0.183913
 C        -2.590193         0.172007         0.003297
 O        -2.825575         1.496236         0.492446
 C        -3.364011        -0.965724         0.753986
 C        -4.737649        -0.579900         1.079631
 C        -5.035641        -0.201571         2.539017
 O        -5.573411        -0.643778         0.165447
 H         1.944118         1.195262         0.118496
 H         1.426745         0.183584         1.560209
 H         2.071300        -0.589065         0.083501
 H        -3.174158         0.327493        -0.883441
 H        -3.157688         1.507769         1.369923
 H        -3.444204        -1.842695         0.125094
 H        -2.989997        -1.318290         1.757521
 H        -4.883643         0.848583         2.694905
 H        -6.059876        -0.335973         2.753822
 H        -4.313418        -0.681122         3.230808
