19
Iteration:  4897
 C         0.662116        -1.176130        -1.205430
 C        -0.266176        -0.271247        -0.436227
 C        -1.225607         0.177484         0.147489
 C        -2.599325         0.846725         0.418831
 O        -2.434655         2.361907         0.259806
 C        -3.588863         0.655843         1.608642
 C        -4.463459        -0.531869         1.545024
 C        -5.654521        -0.787833         2.620628
 O        -4.433476        -1.505462         0.727091
 H         1.598720        -1.351901        -0.727058
 H         0.220489        -2.210986        -1.294140
 H         0.846130        -0.863449        -2.293735
 H        -3.143230         0.372041        -0.467674
 H        -1.575119         2.286167        -0.231703
 H        -2.922644         0.384747         2.406417
 H        -4.217920         1.609283         1.835064
 H        -4.984994        -0.770837         3.526469
 H        -6.583999        -0.155551         2.419175
 H        -5.961633        -1.789619         2.185145
