19
Iteration:  4597
 C         0.276482        -1.461426        -0.439789
 C        -0.736964        -0.660344         0.166236
 C        -1.625198         0.167019         0.124503
 C        -2.733105         1.171667         0.189318
 O        -2.493503         2.563568         0.031266
 C        -3.619553         0.821843         1.336777
 C        -4.261554        -0.584186         1.317680
 C        -4.253819        -1.455841         2.629034
 O        -4.717046        -0.954486         0.279533
 H         1.297418        -1.074508        -0.282793
 H         0.293955        -2.482463        -0.132724
 H         0.164666        -1.446586        -1.478040
 H        -3.468939         0.801136        -0.646645
 H        -1.811918         2.929941         0.703972
 H        -3.052283         0.903726         2.294294
 H        -4.353673         1.649775         1.425990
 H        -3.199304        -1.497912         2.913610
 H        -4.699961        -0.845407         3.405291
 H        -4.629010        -2.480516         2.441758
