19
Iteration:  2502
 C         0.355162        -1.455757        -0.177525
 C        -0.606276        -0.418825         0.235124
 C        -1.713315         0.185752         0.256792
 C        -2.909366         1.109276         0.143013
 O        -2.285862         2.487493         0.234882
 C        -3.963131         0.920546         1.347097
 C        -4.327827        -0.576006         1.185357
 C        -3.695552        -1.560953         2.161950
 O        -5.069666        -0.977043         0.246467
 H         1.071765        -1.700576         0.603669
 H        -0.276800        -2.334001        -0.234611
 H         0.864891        -1.311734        -1.123136
 H        -3.423221         1.036518        -0.799335
 H        -1.647815         2.318883         0.981454
 H        -3.430676         1.202731         2.291490
 H        -4.747979         1.608479         1.256733
 H        -4.512037        -2.042156         2.799013
 H        -3.211734        -2.291573         1.466275
 H        -2.957204        -0.910140         2.744939
