19
Iteration:  2297charge 0 multiplicity 1
 C         0.694996        -1.142480         0.048339
 C        -0.456717        -0.281767         0.230815
 C        -1.595001         0.054167         0.188814
 C        -2.740262         0.916440         0.282252
 O        -2.464052         2.353070        -0.016535
 C        -3.756321         0.777286         1.479205
 C        -4.525895        -0.554338         1.225971
 C        -3.867812        -1.957880         1.815612
 O        -5.432779        -0.500592         0.431611
 H         1.567773        -0.850522         0.756334
 H         0.331897        -2.132568         0.398943
 H         1.138649        -1.268171        -0.955133
 H        -3.434211         0.756516        -0.568613
 H        -1.666948         2.718473         0.497268
 H        -3.157473         0.762970         2.429934
 H        -4.487262         1.600243         1.365697
 H        -4.125775        -2.754867         1.097567
 H        -2.816124        -1.725801         1.839436
 H        -4.337087        -2.280674         2.756640
