19
Iteration:  3241
 C         0.602477        -1.243994        -0.678193
 C        -0.669885        -0.584943        -0.507395
 C        -1.406294         0.269226        -0.066851
 C        -2.658322         1.055209         0.361560
 O        -2.452541         2.499604         0.251514
 C        -3.388375         0.689751         1.674672
 C        -4.213260        -0.663940         1.507202
 C        -5.410078        -1.103153         2.566050
 O        -4.416407        -1.255085         0.491845
 H         0.886825        -2.125606        -0.124870
 H         0.626378        -1.588501        -1.753586
 H         1.523299        -0.593772        -0.684849
 H        -3.397849         0.659067        -0.476274
 H        -2.034511         2.713101        -0.562250
 H        -2.756906         0.446852         2.561635
 H        -4.290065         1.362144         1.921032
 H        -5.067526        -1.530697         3.527288
 H        -6.058666        -0.312557         2.976406
 H        -6.048059        -1.783903         1.955420
