19
Iteration:   350
 C         1.310244        -0.638814        -0.017674
 C        -0.041171        -0.035278        -0.049156
 C        -1.227258         0.191615         0.070964
 C        -2.615019         0.586301         0.219732
 O        -2.703828         2.011800         0.184251
 C        -3.245358        -0.062938         1.460779
 C        -4.720588        -0.462688         1.209399
 C        -5.043640        -1.740205         2.063089
 O        -5.568843        -0.074594         0.381059
 H         1.868731        -0.308208         0.859058
 H         1.220346        -1.754217         0.055540
 H         1.813097        -0.612299        -1.016098
 H        -3.292434         0.253530        -0.530011
 H        -3.519851         2.163200         0.601650
 H        -2.701222        -0.921519         1.641358
 H        -3.038143         0.559412         2.368765
 H        -4.878173        -1.489271         3.100656
 H        -6.080863        -2.100206         1.869117
 H        -4.327132        -2.626294         2.023478
