19
Iteration:  2868charge 0 multiplicity 1
 C         0.616634        -1.092674        -0.344118
 C        -0.610384        -0.265392        -0.391004
 C        -1.775946        -0.001129        -0.160790
 C        -2.746983         0.940431         0.285036
 O        -2.112776         2.255076         0.177570
 C        -3.607616         0.773529         1.518756
 C        -4.415180        -0.641630         1.379825
 C        -4.682052        -1.402138         2.642010
 O        -4.872223        -0.910573         0.340310
 H         0.496507        -1.485795         0.662070
 H         0.477506        -1.887391        -1.100381
 H         1.666613        -0.731944        -0.476354
 H        -3.461719         0.990983        -0.499417
 H        -1.247242         2.265036         0.477923
 H        -3.090199         1.115459         2.380112
 H        -4.430116         1.560454         1.460440
 H        -5.192672        -0.926488         3.532646
 H        -5.313107        -2.297013         2.398119
 H        -3.753569        -1.667349         3.217957
