19
Iteration:  4166charge 0 multiplicity 1
 C         0.928630        -1.116280         0.342435
 C        -0.306691        -0.429424        -0.073205
 C        -1.402040         0.135159        -0.121880
 C        -2.758706         0.726772         0.084137
 O        -2.713357         2.125964        -0.189413
 C        -3.466878         0.673548         1.425966
 C        -4.528881        -0.444008         1.381738
 C        -4.048550        -1.865946         1.598370
 O        -5.737093        -0.161301         1.115449
 H         1.686766        -0.775706        -0.333765
 H         1.214688        -0.843527         1.377253
 H         0.839887        -2.235537         0.181541
 H        -3.381957         0.385892        -0.703329
 H        -1.790557         2.366949        -0.423307
 H        -2.963187         0.466962         2.382497
 H        -3.987577         1.676541         1.529994
 H        -3.129635        -1.984058         1.064433
 H        -3.808709        -1.884844         2.631479
 H        -4.789535        -2.559585         1.348847
