19
Iteration:  4827charge 0 multiplicity 1
 C         0.611806        -1.081724        -0.745320
 C        -0.636055        -0.480456        -0.428422
 C        -1.676859         0.128914        -0.203842
 C        -2.744175         0.966499         0.268884
 O        -2.510560         2.417026         0.394024
 C        -3.235970         0.350797         1.592595
 C        -4.276099        -0.674426         1.434138
 C        -5.309194        -0.537485         2.613644
 O        -4.369835        -1.487072         0.520676
 H         1.449369        -0.720764         0.014039
 H         0.509346        -2.177680        -0.662235
 H         0.844672        -0.843136        -1.793600
 H        -3.508598         0.899026        -0.437856
 H        -1.552502         2.687814         0.609805
 H        -2.427102        -0.336430         1.914097
 H        -3.447948         1.152248         2.266007
 H        -4.794711        -0.344178         3.547109
 H        -6.062270         0.294954         2.422018
 H        -5.982254        -1.398749         2.617893
