19
Iteration:   735
 C         1.277618        -0.367135        -0.407587
 C        -0.041815         0.145874        -0.150140
 C        -1.192559         0.238582         0.189432
 C        -2.592548         0.545403         0.411768
 O        -2.679884         1.887883         0.910094
 C        -3.242523        -0.419628         1.451028
 C        -4.662917        -0.711727         1.057668
 C        -5.715362        -0.150819         1.977727
 O        -4.986259        -1.394739         0.051803
 H         1.992383         0.472756        -0.464180
 H         1.518717        -1.069141         0.403335
 H         1.322611        -0.851404        -1.389687
 H        -3.149311         0.231202        -0.487886
 H        -3.637542         1.887595         1.315788
 H        -2.621687        -1.287656         1.392394
 H        -3.139612        -0.010024         2.523371
 H        -5.439165         0.714047         2.582344
 H        -6.640039        -0.051718         1.390801
 H        -5.771138        -1.139043         2.503039
