19
Iteration:  2425charge 0 multiplicity 1
 C         0.441715        -1.373990         0.168980
 C        -0.606408        -0.349389         0.046168
 C        -1.666250         0.320581        -0.102678
 C        -2.827821         1.124062         0.144364
 O        -2.423755         2.502986         0.179710
 C        -3.604179         0.757129         1.373138
 C        -4.359540        -0.595755         1.206296
 C        -3.841364        -1.886773         2.080830
 O        -5.276803        -0.780697         0.397743
 H         0.813447        -1.153469         1.139962
 H         0.029819        -2.355001         0.289316
 H         1.215873        -1.464956        -0.551723
 H        -3.555605         1.162226        -0.609657
 H        -1.544153         2.527179         0.442259
 H        -3.010288         0.917375         2.277627
 H        -4.352514         1.481363         1.431284
 H        -3.383899        -1.239844         2.837099
 H        -4.516876        -2.601759         2.540924
 H        -3.214066        -2.578743         1.460727
