19
Iteration:  3079
 C         0.665852        -1.107024        -0.685661
 C        -0.494919        -0.336969        -0.242067
 C        -1.599006         0.061671        -0.046396
 C        -2.762270         0.862757         0.254107
 O        -2.467231         2.247192         0.246040
 C        -3.405873         0.519979         1.562601
 C        -4.351406        -0.618335         1.448895
 C        -5.132398        -0.958074         2.714946
 O        -4.547792        -1.062255         0.319077
 H         1.038583        -1.978725        -0.129577
 H         0.378372        -1.304983        -1.749357
 H         1.469835        -0.379988        -0.930505
 H        -3.475195         0.666667        -0.483542
 H        -1.657098         2.426855         0.717076
 H        -2.668473         0.363911         2.331854
 H        -3.990864         1.445501         1.851212
 H        -4.959787        -0.331532         3.617221
 H        -6.165431        -0.723721         2.369500
 H        -5.027579        -2.061771         2.795336
