19
Iteration:  1682
 C         0.427807        -1.189679         0.129413
 C        -0.783635        -0.455236         0.149303
 C        -1.722976         0.342954        -0.026302
 C        -2.880115         1.214768         0.238061
 O        -2.619334         2.635919         0.494289
 C        -3.476401         0.587914         1.546142
 C        -4.106181        -0.669881         1.029275
 C        -4.559215        -1.705733         2.062487
 O        -4.434159        -0.998023        -0.116580
 H         1.199441        -1.063108        -0.640012
 H         0.985181        -1.206328         1.064145
 H         0.104781        -2.241247        -0.039207
 H        -3.692321         1.085195        -0.615510
 H        -1.739088         2.482722         1.041557
 H        -2.864284         0.201866         2.369490
 H        -4.268046         1.246835         1.898400
 H        -4.885852        -2.581383         1.460132
 H        -3.650882        -1.975809         2.631676
 H        -5.389295        -1.454835         2.740137
