19
Iteration:   225charge 0 multiplicity 1
 C         1.512756        -0.279073         0.061236
 C         0.077533         0.037261        -0.003300
 C        -1.143693         0.091136         0.000084
 C        -2.552289         0.191186        -0.008377
 O        -3.023181         1.525327        -0.070872
 C        -3.204303        -0.275166         1.419551
 C        -4.748469        -0.377685         1.411375
 C        -5.311203        -1.741320         1.721332
 O        -5.484105         0.536868         1.053660
 H         1.993319         0.110096         1.010780
 H         1.633187        -1.385493         0.038612
 H         2.048597         0.299891        -0.694142
 H        -3.056706        -0.358637        -0.758685
 H        -2.360082         2.071345        -0.506994
 H        -2.808456        -1.352507         1.562509
 H        -2.871200         0.401892         2.167973
 H        -4.775445        -2.105342         2.649437
 H        -6.354675        -1.612054         2.032377
 H        -5.199631        -2.605286         1.077844
