19
Iteration:  1592
 C         0.706897        -1.209899        -0.036616
 C        -0.450387        -0.308020         0.089775
 C        -1.460964         0.400104         0.141027
 C        -2.677330         1.259414         0.188005
 O        -2.615359         2.667794         0.758432
 C        -3.759058         0.555409         1.206176
 C        -4.387447        -0.837275         0.995459
 C        -4.744626        -1.614100         2.300978
 O        -4.682872        -1.250674        -0.124053
 H         1.100923        -0.800529        -0.918088
 H         1.450467        -1.066701         0.768608
 H         0.355631        -2.257996        -0.241265
 H        -3.254463         1.287787        -0.835860
 H        -1.685022         3.009221         0.397531
 H        -3.243680         0.541942         2.172022
 H        -4.583608         1.244995         1.360010
 H        -5.768307        -1.669504         2.736061
 H        -4.422640        -2.674375         2.186224
 H        -4.170964        -1.052663         3.113811
