19
Iteration:  2237charge 0 multiplicity 1
 C         0.938107        -1.131549        -0.064874
 C        -0.459115        -0.587216         0.320262
 C        -1.421044         0.158197         0.370931
 C        -2.717094         0.999544         0.137560
 O        -2.399729         2.447332         0.187101
 C        -3.839043         0.838082         1.213450
 C        -4.666161        -0.643562         1.165401
 C        -3.884356        -1.814019         1.829647
 O        -5.690148        -0.665147         0.535072
 H         1.747026        -0.640675         0.390915
 H         0.979020        -2.213665         0.159876
 H         1.055207        -1.016814        -1.157147
 H        -3.086364         0.873843        -0.873803
 H        -1.822454         2.703367         0.853339
 H        -3.430092         1.271473         2.113388
 H        -4.685768         1.445579         0.857717
 H        -4.588330        -2.487409         2.418533
 H        -3.485623        -2.564609         1.072527
 H        -2.967932        -1.525618         2.466571
