19
Iteration:  1415
 C         0.901406        -0.945343         0.051197
 C        -0.290219        -0.129608        -0.075830
 C        -1.394956         0.437357         0.000544
 C        -2.668495         1.071839         0.143967
 O        -2.826288         2.544101         0.599955
 C        -3.392817         0.217433         1.407451
 C        -4.377446        -0.892431         1.096638
 C        -5.273756        -1.358782         2.320509
 O        -4.631325        -1.250194        -0.059089
 H         1.566100        -0.843451        -0.838918
 H         1.406135        -0.796137         1.036080
 H         0.606349        -2.028387         0.087967
 H        -3.259462         0.940168        -0.843105
 H        -1.974950         3.039244         0.250924
 H        -2.721882        -0.247109         2.151494
 H        -4.091052         0.887241         1.913012
 H        -4.656695        -1.942855         2.989389
 H        -5.665523        -0.418432         2.776419
 H        -6.197125        -1.917280         1.989081
