19
Iteration:  3185
 C         0.569086        -1.095829        -0.608426
 C        -0.570839        -0.253891        -0.296861
 C        -1.708343         0.116366        -0.232831
 C        -2.847944         0.944197         0.141268
 O        -2.272259         2.225663         0.610497
 C        -3.461283         0.479772         1.418256
 C        -4.372935        -0.641456         1.334929
 C        -5.047410        -0.751353         2.723796
 O        -4.491666        -1.394242         0.353881
 H         0.819911        -1.906767         0.056094
 H         0.522828        -1.527793        -1.618323
 H         1.456798        -0.392610        -0.534459
 H        -3.689188         0.963983        -0.702512
 H        -1.462483         2.371901         0.103205
 H        -2.654888         0.385948         2.233645
 H        -4.101163         1.288619         1.814882
 H        -4.245544        -0.390574         3.375626
 H        -5.753127         0.085940         2.549937
 H        -5.650962        -1.599190         3.044874
