19
Iteration:  3021charge 0 multiplicity 1
 C         0.646628        -1.279067        -0.774261
 C        -0.495028        -0.429776        -0.264236
 C        -1.313299         0.365274         0.178229
 C        -2.636084         0.969366         0.260547
 O        -2.656783         2.338801         0.076451
 C        -3.268009         0.490553         1.673835
 C        -4.368753        -0.667322         1.471117
 C        -5.197933        -1.101050         2.634370
 O        -4.685705        -1.025687         0.358269
 H         1.097993        -2.042944        -0.093396
 H         0.384734        -1.797207        -1.719933
 H         1.450368        -0.476289        -0.814946
 H        -3.325992         0.541800        -0.520346
 H        -1.886890         2.734528         0.576110
 H        -2.532903         0.350308         2.441297
 H        -3.911007         1.392459         1.859720
 H        -5.060502        -0.532926         3.552574
 H        -6.204839        -1.021634         2.226337
 H        -5.203583        -2.154562         2.888039
