19
Iteration:  1683
 C         0.418289        -1.188693         0.132993
 C        -0.786059        -0.467411         0.144566
 C        -1.722878         0.348969        -0.019511
 C        -2.878386         1.218575         0.246094
 O        -2.621061         2.629333         0.489957
 C        -3.471400         0.591532         1.542538
 C        -4.109296        -0.673301         1.035409
 C        -4.557060        -1.703464         2.067980
 O        -4.432302        -0.993278        -0.121500
 H         1.212983        -1.024552        -0.672283
 H         0.992058        -1.192958         1.062100
 H         0.120586        -2.237382        -0.041054
 H        -3.645624         1.109898        -0.645485
 H        -1.735783         2.482453         1.012744
 H        -2.874027         0.211115         2.388979
 H        -4.299544         1.227686         1.898125
 H        -4.837352        -2.569165         1.477824
 H        -3.656716        -2.011556         2.621109
 H        -5.406638        -1.485496         2.697131
