19
Iteration:  4707
 C         0.587022        -1.260413        -0.682436
 C        -0.643671        -0.613802        -0.172739
 C        -1.649472         0.107085        -0.167026
 C        -2.716423         1.120882         0.066935
 O        -2.347789         2.447624         0.426390
 C        -3.595243         0.714849         1.333207
 C        -4.326161        -0.637539         1.500777
 C        -4.952142        -1.054417         2.796231
 O        -4.493659        -1.266664         0.414898
 H         1.365167        -0.773683        -0.077788
 H         0.661956        -2.308910        -0.461044
 H         0.691125        -1.076105        -1.717594
 H        -3.350250         1.178265        -0.786206
 H        -1.864444         3.029438        -0.151597
 H        -2.928304         0.507423         2.179105
 H        -4.138330         1.627637         1.523839
 H        -4.335600        -1.237100         3.653262
 H        -5.683251        -0.286655         3.111849
 H        -5.656211        -1.910601         2.681504
