19
Iteration:  2532
 C         0.272479        -1.444163        -0.223101
 C        -0.750257        -0.486985         0.021140
 C        -1.690797         0.209526         0.392386
 C        -2.787820         1.154058         0.276357
 O        -2.233407         2.556963         0.241352
 C        -3.998676         0.841827         1.230141
 C        -4.278875        -0.586713         1.150718
 C        -3.760710        -1.532512         2.228382
 O        -4.973670        -1.028997         0.298271
 H         0.775356        -1.457829         0.777425
 H        -0.344993        -2.410181        -0.202484
 H         1.043683        -1.341508        -1.065983
 H        -3.237438         0.954236        -0.776602
 H        -1.714113         2.697359         1.009542
 H        -3.753668         1.235019         2.273851
 H        -4.816035         1.438974         0.811970
 H        -4.414334        -2.396374         2.288108
 H        -2.902074        -1.859454         1.665244
 H        -3.662678        -0.978036         3.183495
