19
Iteration:   256charge 0 multiplicity 1
 C         1.400697        -0.361812         0.043884
 C         0.018362        -0.016121        -0.024575
 C        -1.183611         0.053490         0.129035
 C        -2.580895         0.357601         0.082090
 O        -2.829912         1.728528        -0.090620
 C        -3.273600        -0.218573         1.425683
 C        -4.725960        -0.435283         1.362110
 C        -5.187863        -1.841427         1.793733
 O        -5.463701         0.433454         0.907824
 H         1.809461        -0.000953         0.978254
 H         1.606640        -1.430335        -0.027599
 H         1.946501        -0.006969        -0.820716
 H        -2.985237        -0.215832        -0.812088
 H        -3.785734         1.848647        -0.468677
 H        -2.772694        -1.153868         1.782336
 H        -3.202092         0.480228         2.299024
 H        -4.424530        -2.094584         2.502314
 H        -6.158356        -1.668824         2.251745
 H        -5.232036        -2.585082         1.020410
