19
Iteration:   276
 C         1.499489        -0.400202         0.007463
 C        -0.018341        -0.198466         0.079995
 C        -1.196691         0.141937         0.077957
 C        -2.630584         0.423646         0.148492
 O        -2.865833         1.852298        -0.166911
 C        -3.169161        -0.134464         1.442693
 C        -4.749805        -0.457633         1.389916
 C        -5.211054        -1.856873         1.881333
 O        -5.513382         0.299340         0.787876
 H         2.007249        -0.040575         0.861186
 H         1.692516        -1.468580        -0.040198
 H         1.920360         0.002635        -0.932138
 H        -3.310516        -0.054240        -0.632872
 H        -3.287354         2.289571         0.603746
 H        -2.627980        -1.018795         1.609611
 H        -2.823776         0.585620         2.286946
 H        -4.609581        -2.465653         2.502003
 H        -6.306390        -1.843590         2.078316
 H        -5.169738        -2.412277         0.910827
