19
Iteration:   226
 C         1.507084        -0.284428         0.059445
 C         0.075698         0.042027        -0.005309
 C        -1.146383         0.094359         0.006734
 C        -2.558329         0.183597        -0.007838
 O        -3.018741         1.529829        -0.061566
 C        -3.201882        -0.268014         1.419246
 C        -4.743469        -0.379248         1.399629
 C        -5.312864        -1.740012         1.725173
 O        -5.484997         0.533486         1.052035
 H         1.980961         0.114285         1.026326
 H         1.644285        -1.400352         0.038536
 H         2.056789         0.290017        -0.702044
 H        -3.062028        -0.380390        -0.771091
 H        -2.350646         2.075755        -0.578326
 H        -2.799448        -1.355820         1.567042
 H        -2.889855         0.404613         2.181419
 H        -4.720493        -2.102634         2.652190
 H        -6.356814        -1.613994         2.041879
 H        -5.185315        -2.608506         1.059282
