19
Iteration:  2029charge 0 multiplicity 1
 C         0.347187        -1.515957         0.297572
 C        -0.615988        -0.495772         0.354108
 C        -1.372470         0.444927         0.207223
 C        -2.723683         1.200419         0.190369
 O        -2.799734         2.626049         0.220300
 C        -3.590211         0.733702         1.388152
 C        -4.302506        -0.636472         1.035825
 C        -3.680193        -1.973736         1.660073
 O        -5.281872        -0.705497         0.321986
 H         1.323927        -1.027156         0.446807
 H         0.274168        -2.232067         1.167394
 H         0.308550        -2.137934        -0.664830
 H        -3.186872         0.864015        -0.815714
 H        -1.957063         3.132570        -0.130109
 H        -3.143479         1.011029         2.385852
 H        -4.569555         1.302976         1.359977
 H        -3.668394        -2.751029         0.899069
 H        -2.723098        -1.703562         2.134970
 H        -4.395572        -2.066547         2.456055
