19
Iteration:  4792
 C         0.571113        -1.058318        -0.451863
 C        -0.741998        -0.398032        -0.621392
 C        -1.761016         0.234879        -0.575697
 C        -2.806282         0.927757         0.247608
 O        -2.350021         2.289399         0.347756
 C        -3.156284         0.449714         1.634422
 C        -4.235159        -0.682879         1.559481
 C        -5.352476        -0.726270         2.625512
 O        -4.398830        -1.339568         0.571491
 H         1.331716        -0.620128         0.322427
 H         0.418874        -2.144209        -0.241504
 H         1.144873        -1.035614        -1.379243
 H        -3.769217         1.034915        -0.261300
 H        -1.419763         2.218732         0.790664
 H        -2.233301        -0.197631         1.855880
 H        -3.095275         1.190934         2.379791
 H        -5.200454        -0.961687         3.695984
 H        -5.894585         0.175054         2.455672
 H        -5.774299        -1.653283         2.160476
