19
Iteration:  3577charge 0 multiplicity 1
 C         0.270974        -1.635038        -0.364575
 C        -0.424226        -0.412253         0.025012
 C        -1.310177         0.385996         0.219411
 C        -2.675614         0.964967         0.143971
 O        -2.634840         2.442423         0.130294
 C        -3.711335         0.903876         1.361581
 C        -4.414187        -0.483013         1.391161
 C        -4.200571        -1.411502         2.567029
 O        -4.911229        -0.973308         0.261055
 H        -0.467560        -2.378053        -0.709037
 H         0.907375        -1.369234        -1.221402
 H         0.931746        -1.926809         0.516502
 H        -3.094764         0.563334        -0.743568
 H        -2.136977         2.650495        -0.640705
 H        -3.270226         1.029282         2.393813
 H        -4.497356         1.684426         1.119229
 H        -3.325360        -2.006665         2.288758
 H        -4.030599        -1.147185         3.576110
 H        -4.971426        -2.165917         2.550103
