19
Iteration:  2238
 C         0.932959        -1.129266        -0.062122
 C        -0.462419        -0.583994         0.315136
 C        -1.420148         0.155689         0.380318
 C        -2.707664         0.998574         0.130780
 O        -2.400919         2.445812         0.183977
 C        -3.833630         0.839887         1.221698
 C        -4.671501        -0.651146         1.166261
 C        -3.883455        -1.816642         1.827257
 O        -5.689671        -0.663941         0.531533
 H         1.752758        -0.644162         0.417676
 H         1.005742        -2.213582         0.130684
 H         1.003557        -1.028167        -1.156881
 H        -3.113947         0.873387        -0.848159
 H        -1.819597         2.740580         0.825126
 H        -3.404447         1.296579         2.117926
 H        -4.691665         1.444319         0.885923
 H        -4.589151        -2.476266         2.384872
 H        -3.453651        -2.543354         1.110682
 H        -2.997528        -1.522893         2.456996
