19
Iteration:  2704charge 0 multiplicity 1
 C         0.226046        -1.551125        -0.128608
 C        -0.853265        -0.572196         0.113424
 C        -1.707848         0.273424        -0.106606
 C        -2.897270         1.171852         0.188172
 O        -2.536238         2.563215         0.256166
 C        -3.460188         0.774603         1.462196
 C        -4.150046        -0.542759         1.264490
 C        -4.161734        -1.571154         2.385691
 O        -4.678230        -0.856072         0.147562
 H         0.765087        -1.815853         0.744133
 H        -0.257550        -2.410621        -0.564033
 H         0.915954        -1.231692        -0.897297
 H        -3.618123         1.143557        -0.600032
 H        -1.512022         2.667980         0.286597
 H        -2.669324         0.452389         2.091536
 H        -4.052417         1.561052         2.035903
 H        -3.404939        -1.175553         3.122001
 H        -5.211482        -1.623292         2.848053
 H        -3.749167        -2.475621         1.830577
