19
Iteration:  3122
 C         0.739742        -1.061843        -0.603346
 C        -0.549122        -0.389269        -0.575156
 C        -1.530651         0.204090        -0.209703
 C        -2.659344         1.078966         0.157221
 O        -2.155052         2.344776         0.370829
 C        -3.582449         0.566148         1.457687
 C        -4.560735        -0.591373         1.370504
 C        -5.224271        -1.082473         2.834629
 O        -4.668732        -1.376133         0.528025
 H         0.781317        -1.657076         0.342402
 H         1.057503        -1.656768        -1.499460
 H         1.510097        -0.254934        -0.398386
 H        -3.359490         1.179074        -0.667050
 H        -1.187987         2.222904         0.597322
 H        -2.995201         0.191339         2.255430
 H        -4.112425         1.532833         1.752249
 H        -4.834111        -0.611091         3.739032
 H        -6.261842        -0.787130         2.997794
 H        -5.273442        -2.181316         2.819203
