19
Iteration:  2256
 C         0.763817        -1.104775        -0.049987
 C        -0.484021        -0.494258         0.264895
 C        -1.473656         0.147966         0.436469
 C        -2.631151         0.998210         0.259478
 O        -2.406712         2.408860         0.054196
 C        -3.797385         0.736006         1.288175
 C        -4.570343        -0.570135         1.117760
 C        -3.945886        -1.801302         1.792608
 O        -5.613259        -0.682172         0.540292
 H         1.537934        -0.523924         0.461676
 H         0.828958        -2.179401         0.206810
 H         1.048642        -0.894966        -1.094003
 H        -2.959524         0.631109        -0.766804
 H        -1.659438         2.585360         0.586848
 H        -3.424891         0.666974         2.300070
 H        -4.430561         1.616297         1.144003
 H        -4.670190        -2.619351         2.047913
 H        -3.160661        -2.183694         1.074764
 H        -3.433725        -1.471081         2.734682
