19
Iteration:  2322
 C         0.720805        -1.193485         0.153631
 C        -0.538878        -0.455399         0.173838
 C        -1.617032         0.186306         0.101542
 C        -2.867069         0.942460         0.131628
 O        -2.569767         2.374543         0.065607
 C        -3.633909         0.707832         1.506071
 C        -4.385856        -0.510605         1.218975
 C        -3.923611        -1.869783         1.774805
 O        -5.339232        -0.526035         0.483778
 H         1.387035        -0.673632         0.849935
 H         0.634531        -2.274076         0.447644
 H         1.313120        -1.149199        -0.795450
 H        -3.620299         0.874707        -0.706373
 H        -1.690007         2.584948         0.574778
 H        -2.822660         0.551693         2.196061
 H        -4.384096         1.490459         1.699199
 H        -3.688778        -2.674658         1.051228
 H        -3.083206        -1.620350         2.466896
 H        -4.856482        -2.172372         2.210769
