19
Iteration:  4643
 C         0.281902        -1.415676        -0.700156
 C        -0.595000        -0.361518        -0.095293
 C        -1.520087         0.217727         0.447133
 C        -2.651438         1.084316         0.253662
 O        -2.366605         2.412911         0.103181
 C        -3.780362         0.806205         1.391858
 C        -4.340657        -0.633924         1.345698
 C        -4.538433        -1.251674         2.764677
 O        -4.613539        -1.137940         0.236024
 H         1.299079        -1.214838        -0.464385
 H         0.018041        -2.392476        -0.317765
 H         0.260304        -1.480801        -1.790097
 H        -3.118882         0.504603        -0.729098
 H        -1.357341         2.418070        -0.084278
 H        -3.509563         1.283955         2.364260
 H        -4.698131         1.474233         1.104046
 H        -3.570906        -1.273591         3.211931
 H        -5.203385        -0.631455         3.391588
 H        -4.967210        -2.250248         2.508793
