19
Iteration:  2214charge 0 multiplicity 1
 C         0.828951        -1.120553         0.049228
 C        -0.389764        -0.427554         0.193012
 C        -1.483286         0.132977         0.243983
 C        -2.618168         0.968968         0.170656
 O        -2.338241         2.347771         0.300371
 C        -3.921000         0.773983         1.078803
 C        -4.538294        -0.598083         1.104805
 C        -3.932526        -1.693218         1.768686
 O        -5.683173        -0.744452         0.665222
 H         1.651390        -0.592003         0.468214
 H         0.850750        -2.193423         0.313153
 H         0.966638        -1.064331        -1.045572
 H        -3.073309         0.942075        -0.824945
 H        -1.858904         2.755238         1.112045
 H        -3.631911         1.048083         2.073032
 H        -4.732573         1.432498         0.736202
 H        -4.609601        -1.907910         2.663374
 H        -4.041693        -2.678702         1.195676
 H        -2.828710        -1.643153         2.074794
