19
Iteration:  2881
 C         0.577800        -1.082358        -0.299308
 C        -0.583738        -0.196991        -0.438622
 C        -1.752173        -0.041963        -0.157124
 C        -2.831448         0.924658         0.214403
 O        -2.162138         2.199763         0.223138
 C        -3.588119         0.648397         1.528559
 C        -4.363527        -0.621497         1.410245
 C        -4.700801        -1.329971         2.744513
 O        -4.821505        -0.835775         0.243445
 H         0.751752        -1.648752         0.564810
 H         0.529062        -1.821957        -1.079809
 H         1.434971        -0.457762        -0.508136
 H        -3.564114         0.959431        -0.522208
 H        -1.255680         1.927301         0.645049
 H        -2.973290         0.614822         2.402094
 H        -4.301422         1.489172         1.505342
 H        -5.137004        -0.407705         3.262586
 H        -5.378877        -2.197776         2.618338
 H        -3.730891        -1.702348         3.109990
