19
Iteration:   732charge 0 multiplicity 1
 C         1.274049        -0.380954        -0.409520
 C        -0.048471         0.163643        -0.156288
 C        -1.210835         0.232313         0.185621
 C        -2.585947         0.530387         0.413541
 O        -2.673958         1.905032         0.929369
 C        -3.232496        -0.421567         1.472625
 C        -4.667120        -0.694717         1.036911
 C        -5.699007        -0.168683         1.951159
 O        -4.987931        -1.394619         0.067784
 H         1.943577         0.447178        -0.438201
 H         1.655856        -1.090879         0.333993
 H         1.339680        -0.853026        -1.410822
 H        -3.144406         0.256156        -0.484364
 H        -3.575482         1.978896         1.119078
 H        -2.640878        -1.320836         1.485040
 H        -3.249347         0.046516         2.458809
 H        -5.527069         0.674215         2.662452
 H        -6.625769        -0.105233         1.316855
 H        -5.811787        -1.170642         2.594028
