19
Iteration:  4935charge 0 multiplicity 1
 C         0.605892        -0.936134        -1.161272
 C        -0.525464        -0.502770        -0.328092
 C        -1.481120         0.040201         0.269614
 C        -2.751494         0.789829         0.384241
 O        -2.341022         2.212626         0.273636
 C        -3.527962         0.616119         1.556271
 C        -4.345525        -0.624155         1.568920
 C        -5.488402        -0.620124         2.578307
 O        -4.225632        -1.379966         0.565726
 H         1.521424        -0.940321        -0.482816
 H         0.556372        -1.952637        -1.517332
 H         0.783999        -0.271170        -1.963853
 H        -3.397698         0.477222        -0.561022
 H        -1.940618         2.353685        -0.665227
 H        -2.801360         0.617843         2.457256
 H        -4.155530         1.417833         1.804171
 H        -5.348242        -0.726436         3.655155
 H        -6.166048         0.217885         2.464196
 H        -6.054832        -1.518972         2.495093
