19
Iteration:  2053
 C         0.360027        -1.476794         0.352299
 C        -0.568720        -0.416176         0.254861
 C        -1.504586         0.405907         0.275599
 C        -2.868140         1.082340         0.175697
 O        -2.680337         2.551190         0.213212
 C        -3.666275         0.698582         1.322570
 C        -4.242020        -0.616541         1.066624
 C        -3.659141        -1.913511         1.623095
 O        -5.280512        -0.609918         0.378736
 H         1.365470        -0.996197         0.528043
 H         0.236229        -2.207320         1.191044
 H         0.377727        -2.050555        -0.613993
 H        -3.329498         0.875611        -0.837398
 H        -1.726261         2.720274        -0.000834
 H        -3.076724         0.736627         2.275884
 H        -4.569964         1.303143         1.498314
 H        -3.157213        -2.277064         0.780187
 H        -2.929838        -1.536215         2.294303
 H        -4.329941        -2.584714         2.081329
