19
Iteration:  2935
 C         0.689224        -1.055250        -0.499208
 C        -0.675918        -0.702318        -0.169298
 C        -1.530322         0.215768        -0.224714
 C        -2.643034         1.074786         0.172165
 O        -2.403760         2.528783         0.279791
 C        -3.317404         0.462655         1.435392
 C        -4.344895        -0.731030         1.445703
 C        -4.963961        -1.176868         2.737329
 O        -4.948754        -1.067009         0.301614
 H         1.054541        -1.655374         0.351975
 H         0.748928        -1.797894        -1.345133
 H         1.446820        -0.219974        -0.685958
 H        -3.359989         1.040439        -0.576943
 H        -1.389464         2.696374         0.416508
 H        -2.564801         0.232271         2.164280
 H        -3.713729         1.408047         1.976336
 H        -5.139797        -0.315680         3.506977
 H        -5.989006        -1.623830         2.556903
 H        -4.293888        -2.029593         3.065233
