19
Iteration:  3806charge 0 multiplicity 1
 C         0.311421        -1.625158        -0.119381
 C        -0.451595        -0.467896         0.276955
 C        -1.417908         0.286379         0.409880
 C        -2.694782         0.953928         0.227926
 O        -2.481694         2.409544        -0.240620
 C        -3.897782         0.905025         1.417960
 C        -4.419478        -0.470841         1.319328
 C        -3.537578        -1.487940         1.907715
 O        -5.422923        -0.749130         0.675223
 H        -0.060614        -1.844009        -1.093289
 H         1.395830        -1.538816        -0.315295
 H         0.271444        -2.552729         0.535761
 H        -3.306072         0.450445        -0.671090
 H        -3.148255         2.588833        -0.853881
 H        -3.450389         0.987350         2.453357
 H        -4.489451         1.785504         1.157593
 H        -2.663708        -1.791291         1.202930
 H        -2.984766        -1.113262         2.809854
 H        -4.087025        -2.458874         2.063866
