19
Iteration:  2074
 C         0.412155        -1.368332         0.380483
 C        -0.614185        -0.357942         0.217464
 C        -1.612461         0.271856         0.166628
 C        -2.781523         1.107622         0.195653
 O        -2.508646         2.520198         0.185134
 C        -3.702750         0.782994         1.449600
 C        -4.397602        -0.583693         1.169143
 C        -3.611120        -1.889274         1.560648
 O        -5.372258        -0.760132         0.353065
 H         1.451273        -1.037116         0.610715
 H         0.092821        -2.092945         1.197204
 H         0.477777        -2.011670        -0.551267
 H        -3.355431         1.093185        -0.775918
 H        -1.569053         2.800602        -0.086733
 H        -3.118021         0.558058         2.397926
 H        -4.318303         1.715754         1.543026
 H        -2.792853        -1.998915         0.863325
 H        -3.086850        -1.845601         2.501409
 H        -4.300140        -2.697750         1.529647
