19
Iteration:  3595charge 0 multiplicity 1
 C         0.400586        -1.586918        -0.338557
 C        -0.488626        -0.431007         0.086950
 C        -1.539939         0.242355         0.137532
 C        -2.800690         1.029646         0.263523
 O        -2.544298         2.428734         0.067331
 C        -3.752902         0.826555         1.392394
 C        -4.304843        -0.539024         1.344355
 C        -4.133786        -1.391481         2.469750
 O        -4.912902        -0.875764         0.281550
 H        -0.444765        -2.220872        -0.778703
 H         1.005047        -1.364219        -1.246686
 H         0.964061        -2.017723         0.490596
 H        -3.336842         0.699169        -0.714299
 H        -1.678711         2.541619        -0.313572
 H        -3.346305         1.084355         2.371627
 H        -4.653662         1.466430         1.240698
 H        -3.186736        -1.989474         2.497167
 H        -3.884493        -0.580943         3.285373
 H        -4.955649        -2.074477         2.824467
