19
Iteration:  3545charge 0 multiplicity 1
 C         0.250178        -1.652791        -0.357701
 C        -0.603812        -0.465447        -0.026670
 C        -1.288518         0.465890         0.297834
 C        -2.630567         1.175759         0.180352
 O        -2.605877         2.625076         0.014574
 C        -3.546007         0.684058         1.368859
 C        -4.210305        -0.720530         1.243513
 C        -4.340900        -1.445804         2.601389
 O        -4.972966        -0.966206         0.369286
 H        -0.278590        -2.550250        -0.523204
 H         0.870056        -1.395186        -1.201575
 H         0.948343        -1.726963         0.519072
 H        -2.991060         0.802916        -0.780840
 H        -2.216167         2.852900        -0.923714
 H        -3.111427         0.889176         2.389939
 H        -4.513970         1.230695         1.416245
 H        -3.500002        -1.953089         3.039050
 H        -4.685842        -0.813685         3.358518
 H        -5.090715        -2.174904         2.384340
