19
Iteration:  2307
 C         0.754092        -1.174009         0.126786
 C        -0.459012        -0.337160         0.192870
 C        -1.660886         0.069560         0.134718
 C        -2.827666         1.012676         0.245496
 O        -2.523778         2.356428         0.005530
 C        -3.664465         0.701781         1.479949
 C        -4.438872        -0.614249         1.232373
 C        -3.904301        -1.862318         1.820183
 O        -5.404283        -0.479660         0.434069
 H         1.690858        -0.944536         0.779969
 H         0.402960        -2.194244         0.352268
 H         0.999851        -1.180337        -0.950187
 H        -3.460370         0.659439        -0.575286
 H        -1.730197         2.441919         0.569798
 H        -3.236781         0.832565         2.535131
 H        -4.406656         1.529855         1.400384
 H        -3.970884        -2.404469         0.859137
 H        -2.830050        -1.792775         2.071444
 H        -4.496537        -2.326877         2.646509
