19
Iteration:  3729charge 0 multiplicity 1
 C         0.459203        -1.322597         0.148611
 C        -0.751816        -0.624856        -0.151562
 C        -1.710309         0.121117        -0.316261
 C        -2.766459         1.164707        -0.004539
 O        -2.197537         2.509936         0.129699
 C        -3.708099         0.805972         1.246748
 C        -4.325435        -0.621723         1.356249
 C        -3.851484        -1.591433         2.400890
 O        -5.357173        -0.826028         0.680013
 H         0.606309        -2.136849        -0.576479
 H         1.408113        -0.754403         0.017901
 H         0.504803        -1.903576         1.144183
 H        -3.450041         1.356187        -0.882259
 H        -1.707513         2.630227        -0.714015
 H        -3.195591         1.054626         2.231854
 H        -4.552382         1.516802         1.138761
 H        -2.706494        -1.725722         2.438449
 H        -4.284676        -1.346731         3.424018
 H        -4.185247        -2.616270         2.172347
