19
Iteration:  1155charge 0 multiplicity 1
 C         1.567030        -0.043577         0.189208
 C         0.058572         0.018397         0.033058
 C        -1.187034        -0.005999        -0.093549
 C        -2.599589         0.412268         0.020231
 O        -2.921361         1.794295         0.103429
 C        -3.231671        -0.353769         1.384839
 C        -4.747417        -0.537881         1.251234
 C        -5.544788        -1.053620         2.436863
 O        -5.316546        -0.564150         0.172339
 H         1.921622         0.574344        -0.602461
 H         1.987496         0.309810         1.150254
 H         2.031183        -1.053112         0.015605
 H        -3.211394         0.182784        -0.928275
 H        -2.232562         2.152834         0.706654
 H        -2.778728        -1.356545         1.533042
 H        -2.802922         0.276386         2.215943
 H        -5.846317        -0.321157         3.244543
 H        -6.418126        -1.661211         2.079476
 H        -4.921021        -1.840298         2.999953
