19
Iteration:  1972charge 0 multiplicity 1
 C         0.358984        -1.393647         0.283624
 C        -0.594229        -0.310112         0.204694
 C        -1.608782         0.340730         0.143838
 C        -2.788064         1.164051         0.278589
 O        -2.495824         2.557047         0.389129
 C        -3.747160         0.665577         1.329680
 C        -4.308214        -0.658809         1.022792
 C        -3.733952        -1.844240         1.866778
 O        -5.141350        -0.783192         0.132846
 H         1.441286        -1.268156         0.183429
 H         0.070048        -1.897447         1.230524
 H         0.134771        -2.102923        -0.563309
 H        -3.382764         1.070426        -0.704690
 H        -2.172922         2.867639        -0.433718
 H        -3.403498         0.772306         2.384742
 H        -4.676467         1.281643         1.112498
 H        -4.611158        -2.512352         2.179358
 H        -3.032620        -2.567426         1.354317
 H        -3.396650        -1.382814         2.858408
