19
Iteration:   427charge 0 multiplicity 1
 C         1.174397        -0.726490        -0.152165
 C        -0.179245        -0.073897        -0.011749
 C        -1.332038         0.305167         0.008662
 C        -2.678384         0.704537         0.299337
 O        -2.618828         2.072716         0.516631
 C        -3.266939        -0.067891         1.512535
 C        -4.653910        -0.550604         1.123318
 C        -5.183989        -1.369785         2.227976
 O        -5.201309        -0.550501         0.000244
 H         1.912615        -0.200618         0.482296
 H         1.258880        -1.823660         0.079540
 H         1.614166        -0.574895        -1.200498
 H        -3.291141         0.501541        -0.597362
 H        -3.632917         2.383514         0.577213
 H        -2.547754        -0.833927         1.695975
 H        -3.200505         0.501492         2.504836
 H        -5.375918        -0.800018         3.118551
 H        -6.134637        -1.882329         2.010879
 H        -4.318947        -2.084048         2.465801
