19
Iteration:  1825
 C         0.548613        -1.247580        -0.080793
 C        -0.666839        -0.449089         0.029663
 C        -1.575286         0.260209         0.322643
 C        -2.670299         1.234352         0.302016
 O        -2.393304         2.591392         0.673582
 C        -3.946137         0.740691         1.144368
 C        -4.374966        -0.683950         0.953829
 C        -4.186329        -1.608439         2.230008
 O        -4.909259        -1.185313        -0.053294
 H         1.243116        -0.611239        -0.625048
 H         0.970718        -1.356091         0.895217
 H         0.490830        -2.100443        -0.726659
 H        -2.962434         1.266700        -0.791489
 H        -1.858488         2.560337         1.568969
 H        -3.714738         0.875067         2.213329
 H        -4.730870         1.407210         0.800873
 H        -3.457179        -0.979601         2.827410
 H        -5.251905        -1.744091         2.626796
 H        -3.710256        -2.587093         1.971560
