19
Iteration:   473charge 0 multiplicity 1
 C         1.227414        -0.685165        -0.297940
 C        -0.123129        -0.193990        -0.130076
 C        -1.188286         0.370727         0.084215
 C        -2.636157         0.795220         0.380260
 O        -2.733089         2.228543         0.676865
 C        -3.272255        -0.039594         1.453320
 C        -4.604526        -0.749125         1.096110
 C        -5.504290        -1.205850         2.231553
 O        -5.121821        -0.837975         0.011111
 H         1.981551        -0.151313         0.324337
 H         1.195522        -1.757783         0.013482
 H         1.563200        -0.731340        -1.379465
 H        -3.168582         0.491763        -0.525954
 H        -1.763377         2.596916         0.452418
 H        -2.550735        -0.711565         1.819368
 H        -3.292847         0.668930         2.366745
 H        -5.860365        -0.444651         2.993145
 H        -6.468399        -1.505086         1.793922
 H        -5.025119        -2.027409         2.832959
