19
Iteration:  2181
 C         0.760545        -1.123903         0.213807
 C        -0.430941        -0.318288         0.040507
 C        -1.549226         0.128259         0.154053
 C        -2.714163         1.080114         0.093190
 O        -2.142832         2.372940         0.362021
 C        -3.970403         0.675353         1.066561
 C        -4.648443        -0.664297         1.101429
 C        -3.808294        -1.729171         1.817587
 O        -5.738224        -0.775646         0.644016
 H         1.574854        -0.563319         0.571346
 H         0.566968        -2.054640         0.751252
 H         1.118101        -1.267148        -0.815483
 H        -2.824511         1.267652        -0.961786
 H        -1.466943         2.352431         1.108417
 H        -3.382795         0.777917         1.976501
 H        -4.753232         1.438407         1.063107
 H        -3.457978        -1.493175         2.878040
 H        -4.474020        -2.656757         1.699509
 H        -2.780024        -1.744943         1.307330
