19
Iteration:  3710
 C         0.420810        -1.257498         0.154100
 C        -0.803365        -0.473066        -0.169883
 C        -1.834394         0.109040        -0.433757
 C        -2.876573         1.060084        -0.035374
 O        -2.101607         2.336384         0.185252
 C        -3.605098         0.807386         1.334275
 C        -4.384536        -0.502193         1.375258
 C        -3.846164        -1.506604         2.405135
 O        -5.297617        -0.899465         0.585837
 H         0.678148        -2.101464        -0.442041
 H         1.365731        -0.657221         0.125203
 H         0.394824        -1.597076         1.245838
 H        -3.579732         1.156040        -0.794001
 H        -1.241600         2.184839        -0.157729
 H        -2.900847         0.844071         2.191686
 H        -4.386713         1.577990         1.504958
 H        -2.801796        -1.275825         2.511860
 H        -4.302365        -1.252120         3.311121
 H        -3.980474        -2.530259         2.111275
