19
Iteration:  2929charge 0 multiplicity 1
 C         0.703045        -1.034008        -0.501510
 C        -0.696494        -0.702229        -0.144838
 C        -1.578117         0.145024        -0.283808
 C        -2.632429         1.066642         0.155716
 O        -2.380571         2.517816         0.300325
 C        -3.339532         0.477974         1.509920
 C        -4.419526        -0.670890         1.366004
 C        -4.905681        -1.185277         2.725720
 O        -4.918788        -1.057205         0.354404
 H         1.035692        -1.609330         0.387372
 H         0.850014        -1.813962        -1.232310
 H         1.327007        -0.172380        -0.554553
 H        -3.390610         1.095128        -0.724473
 H        -1.482604         2.710988         0.404598
 H        -2.447137         0.141685         2.130423
 H        -3.856025         1.321980         1.915870
 H        -5.093701        -0.372248         3.377540
 H        -5.784971        -1.697194         2.383169
 H        -4.219618        -1.964524         3.014759
