19
Iteration:  2358charge 0 multiplicity 1
 C         0.615028        -1.202053         0.280602
 C        -0.711591        -0.565953         0.030284
 C        -1.565135         0.272458        -0.092247
 C        -2.780525         1.134218         0.125667
 O        -2.519427         2.624714         0.036799
 C        -3.540133         0.494901         1.433181
 C        -4.388149        -0.731790         1.244802
 C        -3.968518        -1.903932         1.904951
 O        -5.311920        -0.554424         0.518591
 H         0.885176        -0.642142         1.131540
 H         0.570590        -2.180279         0.733733
 H         1.350869        -1.131648        -0.507049
 H        -3.466642         0.946398        -0.689241
 H        -1.619484         2.789230         0.535512
 H        -2.812431         0.496655         2.244882
 H        -4.158719         1.294145         1.777739
 H        -2.957441        -2.042403         1.495391
 H        -3.929183        -1.753084         2.979004
 H        -4.792335        -2.672036         1.785675
