19
Iteration:  1692
 C         0.405416        -1.220713         0.131533
 C        -0.864610        -0.485080         0.090766
 C        -1.674272         0.380886         0.052454
 C        -2.848016         1.235216         0.314771
 O        -2.610032         2.574438         0.453569
 C        -3.501403         0.590107         1.489620
 C        -4.182375        -0.734449         1.056296
 C        -4.513095        -1.725720         2.102226
 O        -4.398465        -0.926520        -0.135488
 H         0.908154        -0.709045        -0.636617
 H         0.929480        -1.032099         1.069491
 H         0.337198        -2.310884        -0.045640
 H        -3.410410         1.245688        -0.679972
 H        -1.671260         2.784987         0.800757
 H        -2.803070         0.564309         2.338850
 H        -4.378405         1.093804         1.876548
 H        -4.628843        -2.654066         1.456165
 H        -3.758122        -2.076048         2.835226
 H        -5.514154        -1.560608         2.540200
