19
Iteration:  4674
 C         0.458351        -1.378835        -0.737540
 C        -0.592274        -0.449512        -0.262228
 C        -1.500065         0.174071         0.213546
 C        -2.652830         1.034323         0.304819
 O        -2.399764         2.368045         0.319255
 C        -3.798717         0.857416         1.390099
 C        -4.391588        -0.594718         1.337432
 C        -4.713472        -1.068970         2.733854
 O        -4.541264        -1.248035         0.343536
 H         1.420963        -1.060936        -0.317475
 H         0.326606        -2.373077        -0.364899
 H         0.624977        -1.411400        -1.774498
 H        -3.187774         0.563998        -0.550261
 H        -1.806398         2.532231        -0.398575
 H        -3.390833         1.073548         2.376970
 H        -4.510816         1.650403         1.112809
 H        -3.842695        -1.162617         3.350263
 H        -5.438217        -0.342340         3.134145
 H        -5.110378        -2.101675         2.585415
