19
Iteration:  2775
 C         0.365491        -1.535102        -0.360241
 C        -0.541637        -0.402906        -0.103024
 C        -1.478898         0.286015         0.119238
 C        -2.693442         1.086289         0.237651
 O        -2.498569         2.540701         0.161136
 C        -3.609409         0.733813         1.379479
 C        -4.428463        -0.575740         1.325574
 C        -4.349692        -1.541798         2.551788
 O        -4.885865        -0.885246         0.268772
 H         0.850026        -2.054300         0.529703
 H        -0.170904        -2.268030        -1.028711
 H         1.163536        -1.256040        -1.109286
 H        -3.176155         0.862761        -0.807608
 H        -1.934596         2.821058         0.991000
 H        -2.910336         0.732653         2.317119
 H        -4.329546         1.531757         1.563348
 H        -4.507832        -1.121559         3.537735
 H        -4.978081        -2.382702         2.317647
 H        -3.298717        -1.762200         2.508099
