19
Iteration:  3216charge 0 multiplicity 1
 C         0.628432        -1.227576        -0.647556
 C        -0.542653        -0.366327        -0.483715
 C        -1.582418         0.178581        -0.174450
 C        -2.765058         0.988541         0.206692
 O        -2.332940         2.417043         0.435682
 C        -3.419689         0.582483         1.542455
 C        -4.453701        -0.608205         1.437626
 C        -5.282561        -1.016483         2.652391
 O        -4.402405        -1.298142         0.502845
 H         0.798261        -2.001322         0.086353
 H         0.778376        -1.680411        -1.608946
 H         1.521261        -0.607245        -0.549182
 H        -3.432948         0.951798        -0.637069
 H        -1.889511         2.744903        -0.399977
 H        -2.627152         0.252636         2.277712
 H        -3.999208         1.399483         1.900986
 H        -4.672964        -1.037359         3.615681
 H        -6.043185        -0.239898         2.984739
 H        -5.906792        -1.887300         2.427727
