19
Iteration:  3361
 C         0.507013        -1.362746        -0.579863
 C        -0.644114        -0.454815        -0.438172
 C        -1.565923         0.202095         0.024128
 C        -2.687266         1.128962         0.222032
 O        -2.397315         2.546707         0.474832
 C        -3.665261         0.769533         1.317759
 C        -4.395242        -0.580981         1.302098
 C        -4.884801        -1.126788         2.774920
 O        -4.454080        -1.439723         0.369147
 H         0.172487        -2.257045        -0.071527
 H         0.763261        -1.777155        -1.561025
 H         1.480021        -1.026945        -0.161132
 H        -3.209272         1.084325        -0.735670
 H        -1.463076         2.727791         0.176640
 H        -3.124933         0.745240         2.282998
 H        -4.331514         1.607784         1.297984
 H        -3.989925        -1.564690         3.271927
 H        -5.093770        -0.223709         3.394692
 H        -5.812764        -1.758388         2.637936
