19
Iteration:   449charge 0 multiplicity 1
 C         1.189281        -0.697649        -0.211808
 C        -0.129278        -0.110488        -0.122891
 C        -1.268076         0.262463         0.085005
 C        -2.608418         0.752463         0.245433
 O        -2.710442         2.212942         0.564734
 C        -3.361836        -0.088594         1.433336
 C        -4.680631        -0.669731         1.121329
 C        -5.343689        -1.361812         2.365975
 O        -5.043213        -0.611299        -0.048831
 H         1.920473        -0.215870         0.462003
 H         1.120110        -1.789681         0.074454
 H         1.592737        -0.729207        -1.293588
 H        -3.044119         0.600430        -0.754925
 H        -2.709289         2.244180         1.494772
 H        -2.653063        -0.834619         1.827971
 H        -3.346514         0.661471         2.299455
 H        -5.556559        -0.570039         3.082436
 H        -6.366290        -1.694535         2.114456
 H        -4.745395        -2.144525         2.936350
