19
Iteration:  4579charge 0 multiplicity 1
 C         0.332013        -1.539233        -0.251720
 C        -0.835332        -0.619757        -0.118086
 C        -1.647986         0.245536         0.121412
 C        -2.856208         1.105658         0.140762
 O        -2.467726         2.542547         0.044566
 C        -3.592717         0.796235         1.512136
 C        -4.225096        -0.602189         1.265130
 C        -4.105250        -1.401978         2.553761
 O        -4.775432        -0.891589         0.256077
 H         1.233978        -1.015797         0.082747
 H         0.286435        -2.449377         0.413897
 H         0.540823        -1.884673        -1.344978
 H        -3.423986         0.942524        -0.773764
 H        -2.109713         2.869851         0.939995
 H        -2.935678         0.962584         2.372807
 H        -4.557524         1.421110         1.631423
 H        -3.119416        -1.706903         2.873073
 H        -4.546808        -0.759298         3.357309
 H        -4.585279        -2.415235         2.449343
