19
Iteration:  2000charge 0 multiplicity 1
 C         0.324449        -1.491840         0.275323
 C        -0.614107        -0.406440         0.297689
 C        -1.430106         0.501111         0.301663
 C        -2.765148         1.245092         0.159108
 O        -2.632596         2.621264         0.258502
 C        -3.668459         0.645857         1.353061
 C        -4.340613        -0.613016         1.071115
 C        -3.718152        -1.932956         1.772174
 O        -5.223202        -0.811335         0.218006
 H         1.402584        -1.234340         0.258711
 H         0.084228        -2.076912         1.163794
 H         0.208364        -2.136891        -0.582412
 H        -3.121904         1.046835        -0.822238
 H        -2.136898         3.052898        -0.489723
 H        -3.026248         0.510113         2.209425
 H        -4.489687         1.264122         1.682448
 H        -4.363669        -2.753803         1.463228
 H        -2.718193        -2.172935         1.446299
 H        -3.892075        -1.623213         2.800479
