19
Iteration:  1014charge 0 multiplicity 1
 C         1.498704         0.221167         0.367871
 C         0.016064         0.121322         0.196668
 C        -1.166955         0.025128        -0.032043
 C        -2.586553         0.187800         0.048989
 O        -3.043275         1.508331         0.357783
 C        -3.262729        -1.047980         0.809158
 C        -4.724933        -0.495857         1.072557
 C        -5.043860        -0.387009         2.561781
 O        -5.535798        -0.461160         0.187097
 H         2.095970         0.996211        -0.063804
 H         1.647268         0.217736         1.473039
 H         1.944511        -0.784540         0.116551
 H        -2.776141        -0.055749        -0.983594
 H        -3.472409         1.867010        -0.508176
 H        -3.389390        -1.856341         0.088205
 H        -2.565918        -1.320984         1.635025
 H        -4.356414         0.320416         3.051618
 H        -6.052562        -0.043236         2.719986
 H        -4.871040        -1.421465         2.960462
