19
Iteration:  2780
 C         0.409552        -1.556605        -0.389069
 C        -0.514183        -0.425317        -0.060368
 C        -1.512330         0.284437         0.143281
 C        -2.752186         1.071699         0.174013
 O        -2.511474         2.522366         0.205316
 C        -3.575584         0.749932         1.409502
 C        -4.399333        -0.579372         1.342907
 C        -4.319621        -1.503276         2.574810
 O        -4.935022        -0.886275         0.203225
 H         0.935170        -2.090047         0.392569
 H        -0.111641        -2.239888        -1.053918
 H         1.122805        -1.102070        -1.084410
 H        -3.164141         0.930468        -0.778566
 H        -1.962057         2.737507         0.928611
 H        -2.869943         0.644506         2.185035
 H        -4.329454         1.545537         1.608770
 H        -4.591126        -0.860959         3.454124
 H        -4.985335        -2.336076         2.267757
 H        -3.214077        -1.710120         2.706640
