19
Iteration:    36charge 0 multiplicity 1
 C         1.403411         0.204504         0.038594
 C         0.020714         0.061288         0.135847
 C        -1.159920        -0.222511         0.013407
 C        -2.578622        -0.282761        -0.020149
 O        -3.135677         0.973303        -0.500963
 C        -3.082420        -0.319769         1.461700
 C        -4.611535        -0.191122         1.573197
 C        -5.483187        -1.387283         1.008722
 O        -5.143868         0.840592         2.029059
 H         1.882856         0.353208         1.001544
 H         1.868053        -0.691667        -0.410020
 H         1.630266         1.114334        -0.582112
 H        -2.992895        -1.177191        -0.556248
 H        -3.745278         0.698556        -1.278267
 H        -2.772610        -1.176244         1.977615
 H        -2.716012         0.623421         1.970379
 H        -5.139735        -2.373389         1.269062
 H        -6.497229        -1.180863         1.295662
 H        -5.431062        -1.358871        -0.109545
