19
Iteration:  1514
 C         0.810790        -0.823203        -0.175199
 C        -0.525955        -0.353178         0.042246
 C        -1.534583         0.214834         0.336406
 C        -2.724422         1.102920         0.335276
 O        -2.367614         2.379419         0.446695
 C        -3.962719         0.650393         1.428457
 C        -4.542193        -0.712389         1.106965
 C        -4.929765        -1.607769         2.195572
 O        -4.423234        -1.137631        -0.054121
 H         1.279512        -0.431221        -1.054800
 H         1.402581        -0.472295         0.681110
 H         0.733132        -1.896234        -0.335735
 H        -3.332743         0.894649        -0.631147
 H        -1.357745         2.440386         0.421380
 H        -3.744552         0.831748         2.480560
 H        -4.799244         1.245690         1.075612
 H        -4.907507        -1.347817         3.230412
 H        -5.815341        -2.183113         1.836449
 H        -4.155812        -2.429244         2.286732
