19
Iteration:   982
 C         1.505529         0.283451         0.420431
 C         0.027184         0.053395         0.184661
 C        -1.159862         0.063615        -0.106286
 C        -2.618850         0.157705        -0.197152
 O        -2.991128         1.352836         0.478901
 C        -3.279471        -0.971862         0.704552
 C        -4.739329        -0.598945         1.082949
 C        -5.046223        -0.279770         2.544605
 O        -5.621385        -0.482604         0.245083
 H         1.980974         1.178076         0.054571
 H         1.649307         0.334510         1.541568
 H         2.078146        -0.647454         0.081650
 H        -2.842624         0.253331        -1.257108
 H        -2.242709         1.941779         0.683592
 H        -3.047905        -2.029575         0.640332
 H        -2.788614        -0.714967         1.709634
 H        -4.656456         0.682925         2.788017
 H        -6.098488        -0.310179         2.668388
 H        -4.811250        -0.950020         3.397519
