19
Iteration:  3791charge 0 multiplicity 1
 C         0.432223        -1.700431        -0.149563
 C        -0.431718        -0.531004         0.326108
 C        -1.391425         0.276158         0.193403
 C        -2.721839         1.118889         0.199063
 O        -2.528586         2.418929        -0.115818
 C        -3.832436         0.912900         1.356511
 C        -4.459646        -0.500130         1.316081
 C        -3.517774        -1.529804         2.079536
 O        -5.519294        -0.743516         0.607535
 H        -0.044671        -2.089134        -1.108087
 H         1.469660        -1.393114        -0.238069
 H         0.330912        -2.489341         0.544601
 H        -3.164010         0.581125        -0.682713
 H        -3.120834         2.603828        -0.899981
 H        -3.427320         1.174910         2.308886
 H        -4.701341         1.536261         1.182740
 H        -2.700956        -1.536175         1.351631
 H        -3.145333        -1.059387         3.028293
 H        -3.950546        -2.494808         2.316862
