19
Iteration:  3140charge 0 multiplicity 1
 C         0.741213        -0.997556        -0.553722
 C        -0.665196        -0.549869        -0.475558
 C        -1.561444         0.224917        -0.265474
 C        -2.727300         1.056079         0.102997
 O        -2.107531         2.465708         0.517957
 C        -3.515186         0.576086         1.327993
 C        -4.600758        -0.725457         1.419850
 C        -5.177376        -0.945485         2.771712
 O        -4.683561        -1.474131         0.528494
 H         1.152070        -1.744977         0.119415
 H         0.842834        -1.480936        -1.525974
 H         1.445815        -0.143409        -0.514084
 H        -3.346645         1.373901        -0.841460
 H        -1.135253         2.247995         0.446537
 H        -2.676070         0.166228         2.034481
 H        -3.858603         1.501770         1.781712
 H        -4.465717        -0.581003         3.543690
 H        -6.210582        -0.669485         3.016825
 H        -5.283436        -2.037116         2.774264
