19
Iteration:  1813
 C         0.593832        -1.229915        -0.129800
 C        -0.688442        -0.528701         0.063925
 C        -1.513028         0.288893         0.363951
 C        -2.684118         1.255444         0.269058
 O        -2.432770         2.677026         0.675990
 C        -3.917293         0.740008         1.162754
 C        -4.401423        -0.736534         0.957599
 C        -4.229160        -1.524134         2.130694
 O        -4.875502        -1.254520        -0.025958
 H         1.311865        -0.674678        -0.675963
 H         1.018974        -1.618981         0.793678
 H         0.360953        -2.232871        -0.558285
 H        -3.084965         1.345390        -0.766207
 H        -1.897476         2.591528         1.508448
 H        -3.602134         0.762311         2.230000
 H        -4.675342         1.552425         1.166906
 H        -3.426798        -1.362030         2.953541
 H        -5.111793        -1.515201         2.878410
 H        -4.160548        -2.602717         1.753927
