19
Iteration:  3460charge 0 multiplicity 1
 C         0.341489        -1.198997        -0.081364
 C        -0.950889        -0.648629        -0.449676
 C        -1.848109         0.180976        -0.214868
 C        -2.813583         1.150572         0.227809
 O        -2.152387         2.452282         0.258761
 C        -3.573717         0.700552         1.465598
 C        -4.168809        -0.654359         1.409206
 C        -4.507929        -1.375354         2.648360
 O        -4.566369        -1.017838         0.239942
 H         0.218634        -2.275804         0.111204
 H         1.164382        -1.272915        -0.812428
 H         0.725891        -0.734734         0.838781
 H        -3.651923         1.241134        -0.558643
 H        -1.705116         2.515633        -0.556261
 H        -2.952255         0.942670         2.325834
 H        -4.384446         1.379405         1.377368
 H        -3.639087        -1.394244         3.387782
 H        -5.330284        -0.680988         3.014121
 H        -4.944890        -2.350133         2.331869
