19
Iteration:  2791
 C         0.467069        -1.488956        -0.480209
 C        -0.547751        -0.506137         0.053760
 C        -1.500850         0.231557         0.141990
 C        -2.795023         1.100880         0.106580
 O        -2.536012         2.481848         0.253004
 C        -3.567884         0.695690         1.441703
 C        -4.332059        -0.601055         1.192937
 C        -4.295852        -1.370433         2.531032
 O        -4.971044        -0.863557         0.254360
 H         0.940509        -1.984529         0.363642
 H        -0.073327        -2.268697        -1.003747
 H         1.297837        -1.037558        -1.021780
 H        -3.490312         0.934020        -0.660326
 H        -1.833649         2.498490         0.980819
 H        -2.909380         0.660214         2.262351
 H        -4.200582         1.584449         1.683227
 H        -4.861865        -0.761903         3.286844
 H        -4.848282        -2.342329         2.665798
 H        -3.317807        -1.719649         2.971134
