19
Iteration:  2997charge 0 multiplicity 1
 C         0.623186        -1.291748        -0.739644
 C        -0.238869        -0.213510        -0.329219
 C        -1.354039         0.227685        -0.009951
 C        -2.645558         0.862729         0.286416
 O        -2.663854         2.303683         0.189552
 C        -3.433539         0.526745         1.651580
 C        -4.459585        -0.567932         1.485679
 C        -5.124537        -1.057869         2.700898
 O        -4.646503        -1.021671         0.263256
 H         0.581519        -1.883356         0.218679
 H         0.059851        -1.966241        -1.380416
 H         1.713653        -1.120294        -0.836072
 H        -3.477409         0.492226        -0.455168
 H        -1.930080         2.597750         0.855685
 H        -2.844836         0.133740         2.533519
 H        -3.965126         1.464699         1.740892
 H        -4.773669        -0.576025         3.569817
 H        -6.193431        -1.200329         2.596885
 H        -4.867575        -2.100799         2.859404
