19
Iteration:  4774
 C         0.489848        -1.064334        -0.422290
 C        -0.682469        -0.270286        -0.694427
 C        -1.828672         0.092167        -0.469621
 C        -2.791476         0.991661         0.131934
 O        -2.283581         2.329072         0.353092
 C        -3.133303         0.323924         1.643206
 C        -4.273150        -0.631173         1.524288
 C        -5.344130        -0.835174         2.658544
 O        -4.366721        -1.293887         0.576744
 H         0.957892        -0.544706         0.444463
 H         0.245280        -2.028172         0.007426
 H         1.237914        -1.219335        -1.204983
 H        -3.719885         1.119892        -0.373438
 H        -1.261837         2.233820         0.438943
 H        -2.270856        -0.051671         2.157562
 H        -3.572926         1.262869         2.063519
 H        -4.681036        -0.977272         3.505627
 H        -5.957117         0.156748         2.671781
 H        -6.064965        -1.630905         2.453204
