19
Iteration:  3133
 C         0.754937        -0.993613        -0.586792
 C        -0.625959        -0.524213        -0.516301
 C        -1.552380         0.255734        -0.242252
 C        -2.685171         1.055267         0.110504
 O        -2.098320         2.428238         0.461654
 C        -3.539989         0.561411         1.362593
 C        -4.643299        -0.599885         1.448545
 C        -5.237957        -1.012736         2.827309
 O        -4.667252        -1.481523         0.498983
 H         0.797894        -1.747121         0.257402
 H         0.992683        -1.625835        -1.494257
 H         1.537622        -0.182608        -0.472129
 H        -3.312323         1.106610        -0.786277
 H        -1.181985         2.338838         0.525996
 H        -2.740942         0.344842         2.017970
 H        -4.005006         1.420302         1.971363
 H        -4.451261        -0.749552         3.526328
 H        -6.256685        -0.700582         2.966154
 H        -5.037411        -2.090134         2.781668
