19
Iteration:  4280
 C         0.874339        -0.936995         0.120265
 C        -0.446868        -0.455344         0.072648
 C        -1.634051        -0.190624         0.019767
 C        -2.766928         0.810203        -0.008466
 O        -2.308973         2.107740        -0.008522
 C        -3.708144         0.772297         1.240037
 C        -4.516645        -0.435018         1.308361
 C        -3.920061        -1.728888         1.690710
 O        -5.783583        -0.305683         1.109331
 H         1.676962        -0.262188        -0.404839
 H         1.279612        -1.076260         1.143310
 H         1.013148        -1.847109        -0.456915
 H        -3.570527         0.558296        -0.870972
 H        -1.352147         2.022538         0.351080
 H        -3.055997         0.831147         2.179492
 H        -4.351312         1.632837         1.109605
 H        -2.938791        -1.991176         1.219799
 H        -3.538630        -1.907412         2.724486
 H        -4.575120        -2.623132         1.600941
