19
Iteration:  2125
 C         0.572599        -1.138111         0.333889
 C        -0.715932        -0.523439         0.163657
 C        -1.745145         0.158541         0.080794
 C        -2.806695         1.087655         0.066667
 O        -2.301405         2.452792         0.409427
 C        -3.720361         0.755971         1.150979
 C        -4.403475        -0.667899         1.045660
 C        -3.649689        -1.813911         1.664887
 O        -5.505971        -0.712119         0.596111
 H         1.140677        -0.357002         0.783778
 H         0.637279        -1.853910         1.143989
 H         1.015193        -1.647681        -0.511878
 H        -3.030290         1.260896        -0.959440
 H        -1.280923         2.478535         0.541335
 H        -3.151287         1.053983         2.015949
 H        -4.565419         1.441034         1.099450
 H        -2.551322        -1.502045         1.782194
 H        -4.135151        -2.267583         2.607663
 H        -3.843631        -2.570457         0.851976
