19
Iteration:   576charge 0 multiplicity 1
 C         1.234134        -0.502118        -0.610046
 C        -0.118467        -0.137847        -0.185649
 C        -1.196858         0.243636         0.214808
 C        -2.553795         0.726449         0.492963
 O        -2.589348         2.100219         0.885757
 C        -3.297084        -0.097799         1.588119
 C        -4.690960        -0.767616         1.161041
 C        -5.987259        -0.735041         2.039781
 O        -4.675890        -1.147112        -0.018151
 H         2.108719         0.080806        -0.299049
 H         1.374256        -1.499653        -0.189074
 H         1.354640        -0.622240        -1.667282
 H        -3.207990         0.441707        -0.348440
 H        -3.281432         2.477368         0.388909
 H        -2.811382        -1.067712         1.880257
 H        -3.264968         0.409801         2.508671
 H        -6.396221         0.331418         1.985545
 H        -6.761271        -1.499846         1.841838
 H        -5.797551        -0.891769         3.125589
