19
Iteration:  1042
 C         1.530617         0.126740         0.312834
 C         0.034316         0.134660         0.174714
 C        -1.182981         0.149712         0.198590
 C        -2.608183         0.161858        -0.074477
 O        -3.072267         1.505590         0.257045
 C        -3.200084        -0.907865         0.850800
 C        -4.717681        -0.641502         1.127969
 C        -5.126978        -0.469047         2.543130
 O        -5.493119        -0.378331         0.169872
 H         2.188566         0.848246        -0.254299
 H         1.684220         0.174591         1.388135
 H         1.896683        -0.858401         0.082790
 H        -2.658851        -0.080717        -1.188450
 H        -4.065653         1.443943         0.529303
 H        -3.227002        -1.858652         0.259240
 H        -2.489711        -0.941171         1.661613
 H        -4.143458        -0.015233         2.932168
 H        -6.026403         0.195242         2.622506
 H        -5.163300        -1.425755         3.034958
