19
Iteration:  3984charge 0 multiplicity 1
 C         0.573783        -1.060772         0.346142
 C        -0.712865        -0.446005         0.220343
 C        -1.707778         0.046029        -0.290270
 C        -2.829501         0.958048        -0.116662
 O        -2.102570         2.297740        -0.021037
 C        -3.560040         0.649884         1.146756
 C        -4.451202        -0.562872         1.266091
 C        -3.735604        -1.855025         1.722500
 O        -5.671820        -0.440155         1.250536
 H         1.209682        -1.176358        -0.526960
 H         1.220805        -0.557279         1.073669
 H         0.542487        -2.040777         0.837419
 H        -3.491277         0.987589        -1.081774
 H        -2.570474         2.882508        -0.618473
 H        -2.918236         0.641967         2.019626
 H        -4.317464         1.465549         1.231962
 H        -3.159453        -2.247810         0.794811
 H        -2.941050        -1.616893         2.496853
 H        -4.405581        -2.615164         2.094690
