19
Iteration:  4096charge 0 multiplicity 1
 C         0.731233        -1.346329         0.012397
 C        -0.223291        -0.271798         0.525964
 C        -1.264805         0.321536         0.258013
 C        -2.648098         0.794215         0.096025
 O        -2.653448         2.174654        -0.331751
 C        -3.593839         0.698307         1.227226
 C        -4.565912        -0.464818         1.368285
 C        -3.998181        -1.909029         1.562024
 O        -5.662668        -0.255118         1.141666
 H         0.889450        -0.939012        -1.046928
 H         1.630005        -1.392923         0.598155
 H         0.159001        -2.211734        -0.086701
 H        -2.978162         0.164793        -0.753201
 H        -3.449352         2.387687        -0.811622
 H        -2.958672         1.000005         2.068260
 H        -4.326429         1.465789         1.119999
 H        -3.135901        -2.126305         0.874077
 H        -3.453010        -2.042916         2.543444
 H        -4.860044        -2.671200         1.479509
