19
Iteration:  1748charge 0 multiplicity 1
 C         0.404471        -1.292686        -0.042802
 C        -0.548898        -0.250665         0.140870
 C        -1.607364         0.324643         0.235960
 C        -2.808239         1.152726         0.270505
 O        -2.507948         2.574898         0.508706
 C        -3.809713         0.749331         1.433297
 C        -4.322359        -0.687707         1.050807
 C        -4.352631        -1.715248         2.120559
 O        -4.547531        -1.100036        -0.112559
 H         1.063083        -1.135604        -0.864266
 H         0.839354        -1.596119         0.897711
 H        -0.310191        -2.032257        -0.390613
 H        -3.211357         1.147974        -0.789839
 H        -1.762031         2.658096         1.042597
 H        -3.208464         0.892177         2.334817
 H        -4.672877         1.355076         1.548117
 H        -3.856539        -2.562002         1.667344
 H        -4.316039        -1.423793         3.170935
 H        -5.400883        -2.072158         2.038318
