19
Iteration:   858
 C         1.567486        -0.059194         0.033781
 C         0.095100         0.129985         0.043139
 C        -1.128521         0.229879         0.169109
 C        -2.631545         0.349270         0.079682
 O        -2.936296         1.608151         0.814076
 C        -3.225305        -0.843659         0.885192
 C        -4.746450        -0.661117         1.019503
 C        -5.316633        -0.075941         2.278290
 O        -5.574489        -1.010330         0.195383
 H         2.025022         0.899735        -0.347291
 H         1.970186        -0.365874         1.018230
 H         1.902043        -0.757332        -0.728607
 H        -3.047679         0.194122        -0.931172
 H        -2.308810         2.183177         0.426721
 H        -3.037950        -1.827522         0.312697
 H        -2.677205        -0.981890         1.816845
 H        -5.244957         1.048030         2.128131
 H        -6.368926        -0.417866         2.409663
 H        -4.714239        -0.221340         3.161774
