19
Iteration:  1981
 C         0.325390        -1.452697         0.293096
 C        -0.606259        -0.285128         0.217889
 C        -1.606530         0.440511         0.226723
 C        -2.785748         1.129535         0.283315
 O        -2.519719         2.607319         0.331181
 C        -3.671002         0.665474         1.317090
 C        -4.277186        -0.784126         0.973124
 C        -3.760948        -1.892549         1.893680
 O        -5.197264        -0.742139         0.160983
 H         1.404217        -1.203416         0.260479
 H         0.185461        -2.101484         1.151477
 H         0.093319        -2.107490        -0.524775
 H        -3.291077         0.828912        -0.688404
 H        -2.199123         2.944599        -0.483138
 H        -3.282391         0.818236         2.320954
 H        -4.418321         1.460875         1.257200
 H        -4.552942        -2.717667         1.942331
 H        -2.833306        -2.180138         1.179831
 H        -3.335291        -1.232744         2.766010
