19
Iteration:   337charge 0 multiplicity 1
 C         1.298482        -0.623021        -0.033385
 C        -0.021719        -0.027480        -0.016007
 C        -1.215895         0.129353         0.116347
 C        -2.639743         0.500007         0.154568
 O        -2.723626         2.040834         0.184265
 C        -3.308196        -0.069680         1.436455
 C        -4.778159        -0.544616         1.240566
 C        -5.008579        -1.755637         2.048201
 O        -5.486791         0.040906         0.464817
 H         1.999503        -0.232673         0.769991
 H         1.119318        -1.715442         0.154072
 H         1.931865        -0.341259        -0.902018
 H        -2.995134         0.088229        -0.785333
 H        -3.670964         2.364686        -0.196214
 H        -2.829156        -1.070645         1.733474
 H        -3.221238         0.570940         2.304274
 H        -4.809835        -1.517600         3.107877
 H        -6.056371        -2.086365         2.031322
 H        -4.307225        -2.460403         1.550095
