19
Iteration:  4549charge 0 multiplicity 1
 C         0.207311        -1.488875         0.064620
 C        -0.773605        -0.531514        -0.328429
 C        -1.723347         0.161383        -0.181068
 C        -2.785810         1.107364         0.081049
 O        -2.451821         2.568142         0.125945
 C        -3.554064         0.834727         1.509690
 C        -4.276729        -0.522975         1.378280
 C        -3.953857        -1.573977         2.452610
 O        -4.878606        -0.890073         0.306927
 H         1.123942        -1.032765         0.441715
 H        -0.153667        -2.144500         0.911651
 H         0.619598        -2.240451        -0.714399
 H        -3.532354         0.921464        -0.659640
 H        -1.955989         2.805081         0.864753
 H        -2.974250         1.048087         2.395465
 H        -4.276009         1.598545         1.528046
 H        -2.848031        -1.878648         2.386741
 H        -4.074361        -1.125372         3.454239
 H        -4.600566        -2.439175         2.233395
