19
Iteration:  4402charge 0 multiplicity 1
 C         0.401662        -1.587931         0.053672
 C        -0.552022        -0.532932         0.317719
 C        -1.454966         0.244565         0.128051
 C        -2.710626         1.058818         0.122381
 O        -2.472137         2.476396        -0.034780
 C        -3.744545         0.850943         1.236273
 C        -4.460115        -0.505458         1.254434
 C        -3.604602        -1.560968         1.756910
 O        -5.586048        -0.747642         0.851502
 H         1.381221        -1.011664        -0.220002
 H         0.764618        -2.359924         0.784895
 H         0.133293        -2.112200        -0.882570
 H        -3.098973         0.837154        -0.810981
 H        -1.532410         2.564813        -0.445229
 H        -3.259125         0.843932         2.225464
 H        -4.485857         1.698846         1.350766
 H        -2.619532        -1.747004         1.277540
 H        -3.084228        -1.283271         2.733322
 H        -4.075685        -2.495394         2.014506
