19
Iteration:  2031charge 0 multiplicity 1
 C         0.371170        -1.521520         0.295814
 C        -0.637537        -0.480899         0.350476
 C        -1.387787         0.443534         0.204300
 C        -2.713801         1.206000         0.183579
 O        -2.794995         2.617488         0.217764
 C        -3.621024         0.717016         1.385239
 C        -4.282163        -0.647908         1.040117
 C        -3.648960        -1.968346         1.657947
 O        -5.290253        -0.677626         0.324441
 H         1.372723        -1.071318         0.496316
 H         0.265774        -2.231410         1.164329
 H         0.269680        -2.145885        -0.636855
 H        -3.170574         0.800548        -0.774174
 H        -1.997596         3.084622        -0.087936
 H        -3.162225         0.978746         2.372931
 H        -4.547409         1.351589         1.347165
 H        -3.703503        -2.716464         0.933910
 H        -2.803803        -1.743831         2.228656
 H        -4.414290        -2.110795         2.385303
