19
Iteration:  2758charge 0 multiplicity 1
 C         0.301038        -1.579626        -0.318381
 C        -0.588189        -0.406618        -0.237187
 C        -1.423513         0.401991         0.116931
 C        -2.688252         1.168110         0.232334
 O        -2.431874         2.547401         0.076117
 C        -3.632331         0.813010         1.566593
 C        -4.338861        -0.595890         1.394826
 C        -4.375831        -1.657104         2.445068
 O        -4.867848        -0.959035         0.290219
 H         0.518466        -1.712473         0.727449
 H        -0.220097        -2.466434        -0.645494
 H         1.239543        -1.394247        -0.810160
 H        -3.331043         0.938468        -0.557061
 H        -1.887697         2.944707         0.844820
 H        -3.301634         0.992463         2.540953
 H        -4.477732         1.449998         1.197283
 H        -4.325388        -1.173089         3.458091
 H        -5.309787        -2.232158         2.106363
 H        -3.424072        -2.290749         2.373446
