19
Iteration:  3539charge 0 multiplicity 1
 C         0.262322        -1.586798        -0.306489
 C        -0.626632        -0.510371        -0.021641
 C        -1.335284         0.476103         0.223579
 C        -2.655632         1.134556         0.218998
 O        -2.576800         2.659901         0.006925
 C        -3.529591         0.682262         1.387535
 C        -4.135862        -0.709061         1.247015
 C        -4.352321        -1.474918         2.634170
 O        -4.998439        -0.974449         0.315803
 H        -0.336143        -2.553019        -0.469810
 H         0.791125        -1.355425        -1.271913
 H         1.011366        -1.958679         0.410034
 H        -3.123236         0.747227        -0.746459
 H        -2.156919         2.867577        -0.811697
 H        -2.920093         0.829845         2.263382
 H        -4.466394         1.244074         1.529657
 H        -3.409200        -1.884627         3.096062
 H        -4.838460        -0.579697         3.233589
 H        -5.142060        -2.267725         2.514590
