19
Iteration:  1212
 C         1.496922        -0.167790        -0.147459
 C        -0.023530        -0.134766         0.134307
 C        -1.239404         0.055151         0.227013
 C        -2.615753         0.530790         0.303447
 O        -2.730336         1.967821         0.057595
 C        -3.420852        -0.039678         1.513900
 C        -4.721622        -0.662144         1.103320
 C        -5.389865        -1.199757         2.364249
 O        -5.304026        -0.746457         0.040725
 H         1.958270         0.384363        -0.933522
 H         1.976584         0.158664         0.783645
 H         1.891362        -1.199009        -0.254537
 H        -3.070356         0.171108        -0.669857
 H        -2.015685         2.524326         0.520231
 H        -2.982763        -0.853917         2.083549
 H        -3.605904         0.759791         2.277953
 H        -6.309131        -0.630718         2.399699
 H        -5.716165        -2.289645         2.348525
 H        -4.896662        -0.978152         3.376261
