19
Iteration:  4666
 C         0.416906        -1.385498        -0.717759
 C        -0.559149        -0.411936        -0.301397
 C        -1.482256         0.155962         0.320537
 C        -2.679443         0.970013         0.400674
 O        -2.389627         2.425430         0.246173
 C        -3.840740         0.832497         1.352050
 C        -4.369596        -0.573101         1.381385
 C        -4.656531        -1.131093         2.700352
 O        -4.557054        -1.228779         0.301801
 H         1.365649        -1.100862        -0.350705
 H         0.140175        -2.381818        -0.336279
 H         0.550749        -1.486805        -1.832055
 H        -3.089852         0.759489        -0.733289
 H        -1.679860         2.365916        -0.409880
 H        -3.408715         1.104030         2.354144
 H        -4.654057         1.656462         1.273214
 H        -3.778117        -1.000666         3.320284
 H        -5.304688        -0.293350         3.078082
 H        -5.201894        -2.077449         2.755640
