19
Iteration:  1364
 C         0.908255        -0.883516        -0.022015
 C        -0.251594        -0.000232         0.000954
 C        -1.303394         0.535963         0.105894
 C        -2.722454         0.925819         0.251666
 O        -2.754886         2.328094         0.477268
 C        -3.269591         0.169180         1.409299
 C        -4.488957        -0.829675         1.089714
 C        -5.379486        -1.259390         2.291701
 O        -4.634604        -1.188036        -0.053267
 H         1.523792        -0.702211        -0.889853
 H         1.518652        -0.844824         0.923417
 H         0.665941        -1.994663         0.039617
 H        -3.242788         0.691565        -0.665229
 H        -3.537381         2.492881        -0.073615
 H        -2.496610        -0.445428         1.896837
 H        -3.673976         0.903251         2.165144
 H        -5.083835        -2.302907         2.480298
 H        -5.146835        -0.685085         3.205733
 H        -6.466057        -1.068072         2.107511
