19
Iteration:  3625
 C         0.453383        -1.330979        -0.216194
 C        -0.871650        -0.673225        -0.028807
 C        -1.784515         0.126412         0.193692
 C        -2.805340         1.120944         0.100283
 O        -2.327178         2.454524         0.007130
 C        -3.654547         0.881606         1.343298
 C        -4.354307        -0.534110         1.336314
 C        -4.061337        -1.503646         2.473845
 O        -4.899393        -0.900004         0.382144
 H         0.308779        -2.297808        -0.710516
 H         1.061869        -0.661444        -0.826317
 H         0.920995        -1.529618         0.715588
 H        -3.356063         0.976596        -0.884685
 H        -1.367125         2.463655         0.367810
 H        -2.947248         0.887134         2.148804
 H        -4.426773         1.600042         1.541336
 H        -3.046019        -1.896198         2.419411
 H        -4.060487        -0.975506         3.461667
 H        -4.807913        -2.295413         2.611700
