19
Iteration:  2729charge 0 multiplicity 1
 C         0.212248        -1.548124        -0.191741
 C        -0.770232        -0.479740        -0.157839
 C        -1.587951         0.343111         0.114647
 C        -2.746249         1.228745         0.222962
 O        -2.457399         2.627673         0.087149
 C        -3.551771         0.739156         1.493709
 C        -4.215330        -0.632022         1.293292
 C        -4.287658        -1.732612         2.475608
 O        -4.734027        -0.848370         0.238758
 H         0.475738        -1.636298         0.864495
 H        -0.236070        -2.503209        -0.541588
 H         1.136275        -1.382850        -0.783752
 H        -3.432883         1.049345        -0.676420
 H        -1.491347         2.830737         0.315164
 H        -2.972733         0.748214         2.484631
 H        -4.403548         1.425173         1.572253
 H        -3.856965        -1.378389         3.439670
 H        -5.341866        -1.882244         2.508765
 H        -3.719875        -2.559372         2.092986
