19
Iteration:  4362charge 0 multiplicity 1
 C         0.558628        -1.330414        -0.088170
 C        -0.524353        -0.508822         0.341765
 C        -1.465713         0.249708         0.334758
 C        -2.578192         1.048827        -0.004107
 O        -2.417962         2.423437        -0.069968
 C        -3.795702         0.743151         0.991387
 C        -4.377562        -0.590570         1.280497
 C        -3.861950        -1.881768         1.926903
 O        -5.604516        -0.496248         1.013718
 H         1.286576        -0.697490        -0.407103
 H         0.859961        -2.037683         0.678027
 H         0.180464        -1.972269        -0.942184
 H        -3.107157         0.590847        -1.028789
 H        -1.495218         2.528383         0.017063
 H        -3.293554         1.102062         1.862165
 H        -4.585774         1.433146         0.807738
 H        -3.063834        -2.255894         1.314599
 H        -3.463395        -1.505300         2.886202
 H        -4.719244        -2.577161         1.853248
