19
Iteration:  2901
 C         0.702261        -1.039935        -0.396664
 C        -0.645944        -0.452415        -0.305720
 C        -1.756064         0.067287        -0.166614
 C        -2.858916         0.961697         0.150088
 O        -2.268352         2.255026         0.313277
 C        -3.440818         0.583519         1.502277
 C        -4.438410        -0.567713         1.402525
 C        -4.748677        -1.205969         2.701506
 O        -4.829049        -0.940283         0.250293
 H         0.786041        -1.571995         0.590416
 H         0.763560        -1.878872        -1.123880
 H         1.594245        -0.353364        -0.516262
 H        -3.560561         1.034891        -0.644725
 H        -1.341804         2.112499         0.600171
 H        -2.568599         0.243649         2.009148
 H        -3.891430         1.530253         1.948238
 H        -5.030286        -0.438895         3.467512
 H        -5.473974        -2.028181         2.489452
 H        -3.757564        -1.664329         3.012046
