19
Iteration:    74
 C         1.451468         0.268458         0.111021
 C         0.057228        -0.110532        -0.039053
 C        -1.141245        -0.162962         0.021253
 C        -2.582401        -0.131827         0.039377
 O        -3.164861         1.108008        -0.570349
 C        -3.164733        -0.456916         1.526605
 C        -4.665455        -0.236073         1.511569
 C        -5.515301        -1.513559         1.241039
 O        -5.119353         0.864488         1.799336
 H         1.714759         0.459157         1.183060
 H         2.053574        -0.571437        -0.289151
 H         1.726872         1.070680        -0.561403
 H        -2.976257        -0.852900        -0.720150
 H        -2.583653         1.780931        -0.193955
 H        -2.868300        -1.577241         1.605188
 H        -2.615694        -0.010442         2.322853
 H        -5.307431        -2.367314         1.963755
 H        -6.604525        -1.385774         1.451308
 H        -5.558091        -1.780080         0.175325
