19
Iteration:   838charge 0 multiplicity 1
 C         1.446403        -0.123702        -0.082356
 C         0.075945         0.179342         0.056171
 C        -1.119032         0.218361         0.149573
 C        -2.500188         0.399316         0.308330
 O        -2.993667         1.713610         0.706986
 C        -3.212870        -0.860470         0.930377
 C        -4.739721        -0.733116         1.049083
 C        -5.321957         0.015630         2.242761
 O        -5.484873        -1.081888         0.128239
 H         2.095339         0.763362        -0.318615
 H         1.804608        -0.531462         0.906474
 H         1.601587        -0.908358        -0.864907
 H        -2.890007         0.241637        -0.738502
 H        -2.578326         1.820842         1.609640
 H        -2.940936        -1.787933         0.324966
 H        -2.800714        -1.051123         1.933307
 H        -5.174292         1.095051         2.169840
 H        -6.337827        -0.349853         2.151103
 H        -4.965951        -0.388525         3.128629
