19
Iteration:   517
 C         1.202370        -0.632431        -0.472161
 C        -0.136902        -0.062698        -0.059565
 C        -1.299033         0.174992         0.226798
 C        -2.660158         0.749202         0.345286
 O        -2.596797         2.186988         0.729566
 C        -3.351960        -0.064933         1.466952
 C        -4.644922        -0.725455         1.095319
 C        -5.609850        -0.969576         2.274458
 O        -4.778939        -0.970223        -0.098100
 H         2.044618        -0.075759         0.013723
 H         1.225341        -1.699803        -0.142775
 H         1.236832        -0.668908        -1.601618
 H        -3.209125         0.581346        -0.603814
 H        -3.394908         2.255787         1.421017
 H        -2.930559        -1.021703         1.726580
 H        -3.558836         0.509193         2.444332
 H        -5.854107         0.086451         2.658450
 H        -6.573441        -1.317497         1.831841
 H        -5.223864        -1.569491         3.129520
