19
Iteration:  3702
 C         0.370011        -1.165171         0.186430
 C        -0.782619        -0.477534        -0.213115
 C        -1.861187         0.084179        -0.357412
 C        -2.907414         1.018617        -0.061792
 O        -2.106562         2.266252         0.207263
 C        -3.582182         0.819180         1.338771
 C        -4.399470        -0.533164         1.327709
 C        -3.835768        -1.449493         2.398988
 O        -5.236814        -0.874719         0.580908
 H         0.401599        -2.048001        -0.512241
 H         1.298302        -0.633526        -0.003275
 H         0.327557        -1.644656         1.112920
 H        -3.615179         1.364091        -0.901178
 H        -1.201519         1.963179         0.075957
 H        -2.776740         0.778693         2.036721
 H        -4.129715         1.742039         1.530319
 H        -2.798241        -1.336815         2.576331
 H        -4.365817        -1.292429         3.351680
 H        -3.955650        -2.531743         2.191076
