19
Iteration:  1336charge 0 multiplicity 1
 C         1.081298        -0.802936        -0.122887
 C        -0.219364        -0.166804         0.132205
 C        -1.278488         0.393830         0.112730
 C        -2.709878         0.889391         0.335464
 O        -2.870896         2.383426         0.314054
 C        -3.324479         0.104802         1.503818
 C        -4.481024        -0.851523         1.163362
 C        -5.355636        -1.201030         2.214823
 O        -4.687444        -1.037428        -0.048464
 H         1.687802        -0.456601        -1.005919
 H         1.788431        -0.639561         0.722315
 H         1.041402        -1.879039        -0.141203
 H        -3.323381         0.597002        -0.606249
 H        -3.901386         2.385696         0.373570
 H        -2.550038        -0.434718         2.075161
 H        -3.788983         0.740480         2.249167
 H        -5.510149        -2.333411         2.216247
 H        -5.018592        -1.023712         3.238574
 H        -6.301352        -0.696103         2.052909
