19
Iteration:   948charge 0 multiplicity 1
 C         1.438588         0.295771         0.433633
 C         0.024071         0.101462         0.047757
 C        -1.178553        -0.050495        -0.177800
 C        -2.593813         0.169215         0.000585
 O        -2.818578         1.504183         0.498283
 C        -3.370407        -0.970172         0.747716
 C        -4.734570        -0.590899         1.080268
 C        -5.041493        -0.197382         2.546569
 O        -5.568535        -0.645899         0.163444
 H         1.959520         1.196829         0.131884
 H         1.405488         0.164150         1.544015
 H         2.055970        -0.588128         0.100819
 H        -3.189334         0.300570        -0.878516
 H        -3.161153         1.511767         1.342762
 H        -3.435630        -1.856738         0.094432
 H        -2.996784        -1.279669         1.760372
 H        -4.885617         0.888183         2.698836
 H        -6.076944        -0.326450         2.772895
 H        -4.303297        -0.677186         3.193044
