19
Iteration:  3188charge 0 multiplicity 1
 C         0.572506        -1.096740        -0.625246
 C        -0.551625        -0.253857        -0.303807
 C        -1.717459         0.129091        -0.227006
 C        -2.846615         0.950401         0.153920
 O        -2.285023         2.210696         0.592638
 C        -3.460448         0.499946         1.430122
 C        -4.396676        -0.625998         1.371945
 C        -5.053633        -0.760179         2.732910
 O        -4.463008        -1.396018         0.327009
 H         0.795223        -1.924746         0.103048
 H         0.562434        -1.623938        -1.628062
 H         1.539665        -0.505441        -0.503212
 H        -3.598153         0.998898        -0.729941
 H        -1.528304         2.409189         0.066546
 H        -2.668977         0.286805         2.134930
 H        -4.104858         1.341584         1.892157
 H        -4.291350        -0.413063         3.406133
 H        -5.814712         0.018733         2.678377
 H        -5.730861        -1.577328         2.984968
