19
Iteration:   438charge 0 multiplicity 1
 C         1.143485        -0.677228        -0.181387
 C        -0.131216        -0.108393        -0.062963
 C        -1.265679         0.272671         0.029043
 C        -2.643578         0.692220         0.314891
 O        -2.655974         2.125576         0.531296
 C        -3.282048        -0.006261         1.419242
 C        -4.669308        -0.629181         1.097861
 C        -5.290682        -1.350301         2.335011
 O        -5.100053        -0.565519        -0.031581
 H         1.883418        -0.244171         0.514504
 H         0.980763        -1.748059         0.136114
 H         1.523366        -0.650734        -1.268515
 H        -3.350590         0.445173        -0.507421
 H        -3.324788         2.309038         1.281454
 H        -2.826331        -0.950467         1.655489
 H        -3.417564         0.578333         2.392195
 H        -5.369929        -0.713020         3.195764
 H        -6.145270        -1.998319         2.093186
 H        -4.461433        -2.113577         2.586732
