19
Iteration:  3572
 C         0.275460        -1.633462        -0.338066
 C        -0.465177        -0.429561        -0.025846
 C        -1.273588         0.411622         0.271544
 C        -2.639982         0.961889         0.167773
 O        -2.653305         2.478682         0.121520
 C        -3.648910         0.899289         1.322068
 C        -4.437729        -0.490438         1.350024
 C        -4.248048        -1.443867         2.565578
 O        -4.907488        -0.986955         0.308793
 H        -0.566227        -2.292312        -0.729241
 H         0.818901        -1.388878        -1.281272
 H         0.898035        -1.919561         0.476428
 H        -2.923376         0.584315        -0.893981
 H        -2.244978         2.799897        -0.789628
 H        -3.229483         1.097440         2.285261
 H        -4.445192         1.617175         1.183907
 H        -3.289613        -2.020703         2.395516
 H        -4.051370        -1.175459         3.707254
 H        -5.011800        -2.279571         2.520703
