19
Iteration:  1454charge 0 multiplicity 1
 C         0.817974        -0.824690        -0.027864
 C        -0.450939        -0.255673         0.112740
 C        -1.509171         0.301039         0.032867
 C        -2.817324         0.979281         0.274860
 O        -2.532242         2.443799         0.405667
 C        -3.585707         0.435078         1.551029
 C        -4.463139        -0.761067         1.056681
 C        -5.065863        -1.445580         2.234927
 O        -4.495271        -1.209237        -0.128591
 H         1.163772        -0.373142        -0.990068
 H         1.604503        -0.598522         0.707390
 H         0.779563        -1.924443        -0.202659
 H        -3.442306         0.971006        -0.569423
 H        -2.223470         2.538860         1.282158
 H        -2.891918         0.105641         2.345881
 H        -4.140846         1.299585         2.005131
 H        -4.463102        -1.307007         3.187072
 H        -6.036279        -0.951256         2.506856
 H        -5.278993        -2.478453         1.962481
