19
Iteration:  1007
 C         1.480965         0.217631         0.385869
 C         0.048850         0.102702         0.205033
 C        -1.152464         0.074378        -0.042978
 C        -2.600924         0.116157        -0.034068
 O        -3.027530         1.462620         0.388859
 C        -3.239460        -0.961363         0.790913
 C        -4.748534        -0.578763         1.126661
 C        -5.064024        -0.350900         2.543409
 O        -5.544975        -0.450830         0.180430
 H         2.018368         1.109470        -0.044029
 H         1.688596         0.324362         1.470653
 H         1.957319        -0.733168         0.074724
 H        -2.935795        -0.048150        -1.098024
 H        -3.182409         2.142352        -0.371903
 H        -3.390012        -1.779332         0.092163
 H        -2.705311        -1.456489         1.634292
 H        -4.358272         0.371654         2.871181
 H        -6.052763        -0.102998         2.990260
 H        -4.876598        -1.290702         3.080058
