19
Iteration:  1997
 C         0.297538        -1.476324         0.279244
 C        -0.585790        -0.400072         0.284076
 C        -1.444912         0.493720         0.307785
 C        -2.768031         1.234058         0.156780
 O        -2.608357         2.620125         0.269758
 C        -3.670626         0.656946         1.360702
 C        -4.325794        -0.655274         1.048683
 C        -3.731992        -1.914139         1.783842
 O        -5.227175        -0.793413         0.203999
 H         1.357450        -1.174383         0.233691
 H         0.085383        -2.053995         1.224124
 H         0.226547        -2.135515        -0.648017
 H        -3.220424         1.069833        -0.859284
 H        -2.193625         2.934705        -0.489178
 H        -2.983740         0.516202         2.239655
 H        -4.602311         1.237412         1.639404
 H        -4.294018        -2.838426         1.677712
 H        -2.778655        -2.199677         1.446943
 H        -3.763560        -1.640696         2.816113
