19
Iteration:  3476
 C         0.396289        -1.387825        -0.076639
 C        -0.800026        -0.569331        -0.360267
 C        -1.844040         0.114066        -0.254538
 C        -2.873909         1.114139         0.075444
 O        -2.362579         2.436126         0.320103
 C        -3.519221         0.788924         1.494731
 C        -4.125392        -0.581076         1.358703
 C        -4.475317        -1.377068         2.641865
 O        -4.583218        -0.904616         0.225933
 H         0.111460        -2.475695         0.056365
 H         1.096246        -1.200776        -0.914285
 H         0.854428        -0.893412         0.811297
 H        -3.650636         1.078360        -0.638832
 H        -1.624220         2.534980        -0.341407
 H        -2.808438         0.849422         2.357298
 H        -4.501461         1.331960         1.793913
 H        -3.633912        -1.391682         3.336153
 H        -5.250026        -0.982360         3.309324
 H        -4.824320        -2.390787         2.437110
