19
Iteration:  1198charge 0 multiplicity 1
 C         1.409026        -0.116264        -0.015833
 C        -0.011721        -0.116208         0.052418
 C        -1.210499         0.087809         0.175347
 C        -2.633865         0.459660         0.301725
 O        -2.652700         1.951422        -0.004955
 C        -3.279011        -0.149310         1.506455
 C        -4.737824        -0.710547         1.150009
 C        -5.442826        -1.114454         2.355034
 O        -5.350355        -0.693091         0.065039
 H         1.598382         0.544492        -0.854594
 H         1.878734         0.350142         0.880681
 H         1.761682        -1.162219        -0.212752
 H        -3.339643         0.005303        -0.509135
 H        -2.396496         2.279768         0.831017
 H        -2.480992        -0.817037         1.956098
 H        -3.600312         0.606691         2.284311
 H        -6.337253        -0.499093         2.643407
 H        -5.807434        -2.142017         2.064937
 H        -4.632038        -1.215995         3.140576
