19
Iteration:  2721
 C         0.184840        -1.548938        -0.175321
 C        -0.786986        -0.499117        -0.078657
 C        -1.677459         0.329251         0.087088
 C        -2.755456         1.214868         0.134796
 O        -2.488135         2.635131         0.142259
 C        -3.471370         0.675764         1.532501
 C        -4.230727        -0.590818         1.351780
 C        -4.223831        -1.643602         2.408875
 O        -4.715532        -0.860940         0.170357
 H         0.657176        -1.747278         0.866354
 H        -0.144698        -2.569251        -0.517493
 H         1.065233        -1.241747        -0.808877
 H        -3.507772         0.991773        -0.678136
 H        -1.459589         2.672518         0.292904
 H        -2.869823         0.944176         2.463753
 H        -4.281844         1.390709         1.633589
 H        -3.862811        -1.361254         3.368710
 H        -5.216518        -1.945294         2.734292
 H        -3.860932        -2.567254         2.007887
