19
Iteration:  1628charge 0 multiplicity 1
 C         0.432272        -1.210898         0.136240
 C        -0.508329        -0.199119        -0.130809
 C        -1.452013         0.560877         0.074343
 C        -2.740763         1.272183         0.276609
 O        -2.545528         2.571457         0.587649
 C        -3.671182         0.552188         1.346518
 C        -4.304558        -0.838853         1.062548
 C        -4.691506        -1.700341         2.185542
 O        -4.622523        -1.192465        -0.082960
 H         1.268839        -1.189673        -0.657508
 H         1.022175        -1.142893         1.062509
 H         0.152121        -2.292474         0.059321
 H        -3.309471         1.120709        -0.759015
 H        -1.636454         2.497455         1.103084
 H        -3.150966         0.360324         2.310886
 H        -4.521367         1.247786         1.518038
 H        -5.739757        -2.024521         2.021465
 H        -3.956397        -2.475724         2.260488
 H        -4.472516        -1.202469         3.089701
