19
Iteration:  2135
 C         0.671495        -1.120874         0.351232
 C        -0.710927        -0.561010         0.145501
 C        -1.703437         0.113550         0.049799
 C        -2.752524         1.163310        -0.029062
 O        -2.290741         2.446806         0.455215
 C        -3.788228         0.715013         1.123453
 C        -4.399397        -0.593997         1.133324
 C        -3.721621        -1.770797         1.641532
 O        -5.536700        -0.758907         0.620966
 H         1.412763        -0.355279         0.623744
 H         0.548529        -1.916305         1.070296
 H         1.100576        -1.464106        -0.591759
 H        -3.426448         1.287458        -0.936861
 H        -1.273862         2.374043         0.653348
 H        -3.365357         0.825384         2.116416
 H        -4.623047         1.398085         1.003393
 H        -2.631032        -1.580979         2.030874
 H        -4.420201        -2.155381         2.479623
 H        -3.531629        -2.568873         0.866032
