19
Iteration:  3260
 C         0.526493        -1.279359        -0.814950
 C        -0.661212        -0.542265        -0.339889
 C        -1.427589         0.251937         0.123747
 C        -2.699289         1.001551         0.340643
 O        -2.554379         2.442198         0.218832
 C        -3.417000         0.592121         1.686995
 C        -4.338960        -0.668674         1.474344
 C        -5.298355        -1.027133         2.555811
 O        -4.222803        -1.157123         0.401979
 H         0.661773        -2.116236        -0.146887
 H         0.540036        -1.675703        -1.803502
 H         1.423469        -0.670742        -0.604699
 H        -3.360218         0.618042        -0.335295
 H        -2.038411         2.590398        -0.624472
 H        -2.717787         0.583477         2.585026
 H        -3.943655         1.483857         1.844025
 H        -4.687613        -1.575780         3.330741
 H        -5.748122        -0.094942         3.000411
 H        -6.151512        -1.467803         2.018211
