19
Iteration:  1537charge 0 multiplicity 1
 C         0.840159        -0.913625        -0.250396
 C        -0.459406        -0.315824         0.170198
 C        -1.629966         0.108336         0.385672
 C        -2.853945         1.047495         0.376567
 O        -2.427152         2.498117         0.584657
 C        -3.915142         0.687724         1.270222
 C        -4.438128        -0.741884         0.991693
 C        -4.823825        -1.586475         2.262034
 O        -4.498449        -1.154850        -0.140833
 H         1.361609        -0.606114        -1.122393
 H         1.504734        -0.693094         0.609619
 H         0.626256        -2.009771        -0.339658
 H        -3.279543         1.127330        -0.719228
 H        -1.649893         2.610834        -0.007388
 H        -3.380805         0.677779         2.225418
 H        -4.580208         1.536296         1.187490
 H        -5.212897        -0.936066         3.031839
 H        -5.461002        -2.481358         2.106798
 H        -4.019314        -1.969372         2.964017
