19
Iteration:  4418
 C         0.458567        -1.641844         0.120389
 C        -0.598401        -0.570873         0.056301
 C        -1.515154         0.223338         0.207004
 C        -2.771938         1.086120         0.155753
 O        -2.467246         2.496516        -0.000979
 C        -3.810024         0.921498         1.342739
 C        -4.398987        -0.478383         1.258915
 C        -3.463641        -1.586497         1.788976
 O        -5.546148        -0.750146         0.775585
 H         1.470704        -1.367217         0.085628
 H         0.264898        -2.049578         1.103700
 H         0.256226        -2.410120        -0.651806
 H        -3.389817         0.650200        -0.801608
 H        -1.711969         2.596597        -0.616508
 H        -3.342026         1.192894         2.298343
 H        -4.522347         1.628376         1.003246
 H        -2.740841        -1.551103         0.984905
 H        -3.150355        -1.324851         2.778769
 H        -4.027632        -2.546566         1.789027
