19
Iteration:  2314
 C         0.764153        -1.203154         0.161928
 C        -0.516004        -0.374688         0.171361
 C        -1.621880         0.108626         0.119740
 C        -2.894635         1.011183         0.172476
 O        -2.549947         2.354721         0.039462
 C        -3.631857         0.667705         1.495599
 C        -4.400265        -0.562186         1.230512
 C        -3.932010        -1.805990         1.765489
 O        -5.360185        -0.501159         0.464925
 H         1.550520        -0.872232         0.782134
 H         0.617717        -2.263775         0.354131
 H         1.052039        -1.134435        -0.887411
 H        -3.549907         0.721827        -0.642807
 H        -1.689959         2.530249         0.585390
 H        -3.099833         0.755755         2.440803
 H        -4.433931         1.406225         1.551192
 H        -3.783515        -2.536212         0.954752
 H        -3.010758        -1.844404         2.362239
 H        -4.600742        -2.312896         2.533916
