19
Iteration:  3419charge 0 multiplicity 1
 C         0.431069        -1.186089        -0.284889
 C        -0.902963        -0.506350        -0.181256
 C        -1.996813         0.098114        -0.308175
 C        -2.856318         1.230678         0.080358
 O        -2.019442         2.382397         0.461718
 C        -3.576640         0.716915         1.322460
 C        -4.341333        -0.572769         1.348236
 C        -4.644997        -1.231355         2.652661
 O        -4.456182        -1.290430         0.338485
 H         0.505407        -2.258780         0.138137
 H         0.847994        -1.100821        -1.338093
 H         1.092772        -0.708808         0.471213
 H        -3.476195         1.516408        -0.717639
 H        -1.645782         2.715458        -0.392463
 H        -2.904127         0.599986         2.160038
 H        -4.332146         1.507939         1.755138
 H        -3.672648        -1.425886         3.170225
 H        -5.310503        -0.520881         3.226054
 H        -5.096565        -2.217834         2.677713
