19
Iteration:    99charge 0 multiplicity 1
 C         1.498501         0.190910         0.108540
 C         0.062892        -0.020811        -0.061452
 C        -1.139958        -0.101571         0.030212
 C        -2.613981        -0.188844        -0.025557
 O        -3.062834         1.219738        -0.297429
 C        -3.204047        -0.443491         1.359675
 C        -4.663527        -0.308574         1.445809
 C        -5.582585        -1.515764         1.416736
 O        -5.113816         0.775981         1.679429
 H         1.584739         0.455808         1.149045
 H         2.154668        -0.625781        -0.142610
 H         1.815437         1.032856        -0.494656
 H        -2.957749        -0.764425        -0.844076
 H        -3.096292         1.141077        -1.355175
 H        -2.708359        -1.311633         1.754540
 H        -2.797285         0.377271         1.991429
 H        -5.583137        -2.166079         2.237385
 H        -6.614594        -1.173173         1.393637
 H        -5.543306        -2.035907         0.461091
