19
Iteration:  4915charge 0 multiplicity 1
 C         0.603341        -1.043885        -1.168292
 C        -0.406131        -0.341692        -0.404844
 C        -1.327272         0.109362         0.222074
 C        -2.530868         0.852932         0.351533
 O        -2.381400         2.241371         0.239054
 C        -3.529631         0.646237         1.669784
 C        -4.539963        -0.578472         1.530434
 C        -5.587110        -0.770749         2.576300
 O        -4.317787        -1.446002         0.673220
 H         1.640188        -1.259500        -0.701952
 H         0.331646        -2.076945        -1.419386
 H         0.729361        -0.561142        -2.162547
 H        -3.282668         0.636459        -0.395286
 H        -1.816806         2.345308        -0.578637
 H        -3.091744         0.678210         2.695286
 H        -4.154852         1.542409         1.616657
 H        -5.131261        -0.766474         3.569554
 H        -6.285878         0.050421         2.418403
 H        -6.177560        -1.641803         2.570548
