19
Iteration:  4138charge 0 multiplicity 1
 C         0.871335        -1.241084         0.229060
 C        -0.328909        -0.423414         0.113149
 C        -1.324731         0.288153         0.251434
 C        -2.653719         0.912835        -0.009557
 O        -2.689267         2.312871        -0.393487
 C        -3.448672         0.592608         1.412000
 C        -4.579894        -0.510037         1.388865
 C        -4.124055        -1.933196         1.618143
 O        -5.739031        -0.276516         1.158905
 H         1.460594        -0.910766        -0.708334
 H         1.537610        -1.065879         1.076197
 H         0.792487        -2.269683        -0.075603
 H        -3.267986         0.326661        -0.850581
 H        -2.242705         2.291194        -1.336271
 H        -2.809656         0.180228         2.196413
 H        -3.841471         1.476304         1.859731
 H        -3.196317        -2.088399         0.948938
 H        -3.787581        -1.940849         2.717771
 H        -5.040512        -2.595739         1.421195
