19
Iteration:  1140charge 0 multiplicity 1
 C         1.450002        -0.025178         0.183972
 C         0.079585         0.017801         0.068273
 C        -1.112742         0.167306        -0.147401
 C        -2.552817         0.274167         0.137773
 O        -2.971518         1.709104         0.138318
 C        -3.148998        -0.395982         1.315273
 C        -4.742792        -0.593638         1.202537
 C        -5.448297        -0.998691         2.434650
 O        -5.410884        -0.499999         0.159144
 H         2.131733         0.582042        -0.505447
 H         1.647972         0.266246         1.230644
 H         1.783852        -1.056811         0.111450
 H        -3.077345        -0.240987        -0.656581
 H        -2.182331         2.348954         0.288114
 H        -2.811809        -1.468986         1.403582
 H        -3.083681         0.079619         2.274986
 H        -5.382928        -0.063233         3.081361
 H        -6.483179        -1.160515         2.205068
 H        -5.007924        -1.807278         2.956618
