19
Iteration:  2882charge 0 multiplicity 1
 C         0.579210        -1.080202        -0.304542
 C        -0.582439        -0.201936        -0.435685
 C        -1.751380        -0.039646        -0.155296
 C        -2.832122         0.924926         0.202402
 O        -2.166079         2.196588         0.228224
 C        -3.586123         0.640086         1.529032
 C        -4.368832        -0.613620         1.395737
 C        -4.698692        -1.325388         2.745118
 O        -4.815513        -0.834236         0.249608
 H         0.754551        -1.636264         0.566374
 H         0.534503        -1.823178        -1.071744
 H         1.418153        -0.453416        -0.488597
 H        -3.578570         0.958102        -0.550197
 H        -1.269507         1.921956         0.646230
 H        -2.968407         0.598848         2.427804
 H        -4.294906         1.462514         1.567702
 H        -5.137954        -0.413362         3.258314
 H        -5.385154        -2.177181         2.651227
 H        -3.750163        -1.704635         3.121017
