19
Iteration:   699
 C         1.323524        -0.394636        -0.534917
 C        -0.041026        -0.035381        -0.146122
 C        -1.198243         0.286872         0.139276
 C        -2.588844         0.623355         0.486708
 O        -2.709646         1.960686         0.958847
 C        -3.278359        -0.306546         1.555192
 C        -4.760116        -0.812884         1.132330
 C        -5.911078        -0.278539         1.939368
 O        -4.807055        -1.396748         0.026177
 H         1.890919         0.506112        -0.422417
 H         1.893373        -1.119029         0.038324
 H         1.438146        -0.675588        -1.605265
 H        -3.117489         0.539400        -0.493193
 H        -1.886863         2.596193         0.663051
 H        -2.666959        -1.200754         1.387607
 H        -3.208774        -0.037992         2.589818
 H        -5.841284         0.756088         2.382582
 H        -6.902093        -0.371314         1.428262
 H        -6.151292        -0.857166         2.933724
