19
Iteration:  3740
 C         0.469211        -1.400596         0.093505
 C        -0.766698        -0.634213        -0.142510
 C        -1.652324         0.177905        -0.082396
 C        -2.767024         1.097744        -0.075593
 O        -2.249646         2.552493         0.142674
 C        -3.675782         0.851677         1.171270
 C        -4.330545        -0.574375         1.297227
 C        -3.832652        -1.682924         2.369399
 O        -5.354026        -0.809721         0.735776
 H         0.551882        -2.145825        -0.695013
 H         1.333444        -0.688147         0.054049
 H         0.460380        -1.882003         1.147334
 H        -3.373949         0.906634        -1.030229
 H        -2.041071         2.948932        -0.787566
 H        -3.063037         1.150691         2.081725
 H        -4.608161         1.443321         1.110604
 H        -2.685815        -1.679280         2.470987
 H        -4.138493        -1.154484         3.328474
 H        -4.395441        -2.616314         2.209947
