19
Iteration:  2085charge 0 multiplicity 1
 C         0.459216        -1.373056         0.398325
 C        -0.582010        -0.390253         0.212045
 C        -1.633402         0.248691         0.078095
 C        -2.847105         1.134451         0.237327
 O        -2.411624         2.568361         0.198202
 C        -3.769648         0.766335         1.419567
 C        -4.428374        -0.589829         1.094669
 C        -3.637956        -1.852064         1.555928
 O        -5.355291        -0.780018         0.439252
 H         1.387747        -0.787118         0.628800
 H         0.243315        -2.095754         1.241933
 H         0.629243        -1.908020        -0.587086
 H        -3.558606         0.806777        -0.606011
 H        -1.529365         2.427632        -0.071546
 H        -3.086604         0.666528         2.333048
 H        -4.566300         1.513085         1.682321
 H        -2.801627        -1.778383         0.884771
 H        -3.339185        -1.832023         2.578238
 H        -4.136315        -2.752095         1.281259
