19
Iteration:  4716charge 0 multiplicity 1
 C         0.570077        -1.194615        -0.600658
 C        -0.699168        -0.586991        -0.242925
 C        -1.681299         0.102509        -0.236448
 C        -2.742400         1.112454         0.059350
 O        -2.317794         2.428940         0.428391
 C        -3.472669         0.691123         1.413890
 C        -4.291647        -0.624044         1.359989
 C        -5.034560        -1.026530         2.847119
 O        -4.502347        -1.331600         0.439981
 H         1.492599        -0.705230        -0.070748
 H         0.556004        -2.286717        -0.417747
 H         0.781117        -1.044075        -1.659977
 H        -3.468886         1.210918        -0.684371
 H        -1.733779         2.851010        -0.199062
 H        -2.756907         0.661170         2.275612
 H        -4.071607         1.495455         1.768843
 H        -4.427219        -1.236967         3.754733
 H        -5.609193        -0.122608         3.106724
 H        -5.676249        -1.904913         2.540739
