19
Iteration:  4341
 C         0.799000        -1.354252        -0.041522
 C        -0.403142        -0.519907         0.097314
 C        -1.378104         0.194898         0.297736
 C        -2.672094         0.988185         0.104336
 O        -2.388173         2.451691        -0.116966
 C        -3.787845         0.843242         1.104670
 C        -4.516323        -0.486110         1.266381
 C        -3.938450        -1.851378         1.874486
 O        -5.780843        -0.608511         1.085581
 H         1.480650        -0.648686        -0.382424
 H         1.148129        -1.855114         0.845484
 H         0.637544        -2.099767        -0.856688
 H        -3.075159         0.627325        -0.875667
 H        -1.377822         2.443923         0.116998
 H        -3.465976         1.311401         2.046725
 H        -4.569738         1.474230         0.680984
 H        -3.159712        -2.268119         1.269254
 H        -3.670998        -1.484350         2.859015
 H        -4.784258        -2.566372         1.891528
