19
Iteration:  2272charge 0 multiplicity 1
 C         0.782665        -1.117734        -0.020742
 C        -0.496264        -0.384319         0.221255
 C        -1.525240         0.244479         0.447113
 C        -2.798033         0.950140         0.243138
 O        -2.356114         2.308262         0.001451
 C        -3.773646         0.725806         1.399918
 C        -4.481339        -0.603077         1.147362
 C        -3.928113        -1.774229         1.769770
 O        -5.562738        -0.637670         0.500325
 H         1.685925        -0.836504         0.574789
 H         0.560322        -2.160536         0.218101
 H         1.039452        -1.192342        -1.086517
 H        -3.359568         0.702731        -0.621225
 H        -1.636461         2.493669         0.575218
 H        -3.176989         0.717888         2.352280
 H        -4.573573         1.482928         1.381332
 H        -4.693143        -2.496161         1.431700
 H        -2.962728        -1.914409         1.237792
 H        -3.842474        -1.820896         2.931390
