19
Iteration:  3761charge 0 multiplicity 1
 C         0.434698        -1.505321        -0.009514
 C        -0.686974        -0.630476        -0.008273
 C        -1.520858         0.249174         0.200848
 C        -2.700057         1.104067        -0.013861
 O        -2.464711         2.451085         0.078561
 C        -3.688699         0.814853         1.122164
 C        -4.338153        -0.501563         1.275265
 C        -3.757734        -1.549075         2.238071
 O        -5.365302        -0.770017         0.756271
 H         0.393282        -2.140521        -0.921034
 H         1.437533        -1.050029        -0.032692
 H         0.538780        -2.173951         0.893593
 H        -3.070669         0.877097        -1.129996
 H        -2.734234         2.832109        -0.729798
 H        -3.101398         1.008163         2.061144
 H        -4.547865         1.495617         1.094316
 H        -2.644823        -1.743126         1.946747
 H        -3.749854        -1.202721         3.336272
 H        -4.439663        -2.384676         1.993145
