19
Iteration:   478charge 0 multiplicity 1
 C         1.199354        -0.668499        -0.313918
 C        -0.140763        -0.199856        -0.107290
 C        -1.196095         0.403420         0.054301
 C        -2.568924         0.747541         0.399269
 O        -2.706344         2.228969         0.699906
 C        -3.287503        -0.037621         1.495688
 C        -4.617866        -0.699076         1.109052
 C        -5.498950        -1.192081         2.224018
 O        -5.126578        -0.893067        -0.010844
 H         2.023529        -0.185420         0.213434
 H         1.175365        -1.704720         0.012542
 H         1.537410        -0.661382        -1.328496
 H        -3.119232         0.571616        -0.568422
 H        -2.001008         2.586002         0.182793
 H        -2.475519        -0.765211         1.865301
 H        -3.285148         0.569730         2.363291
 H        -5.888959        -0.401897         2.868594
 H        -6.443144        -1.432050         1.721382
 H        -5.148038        -2.014549         2.822835
