19
Iteration:  3054charge 0 multiplicity 1
 C         0.663811        -1.136954        -0.797736
 C        -0.538991        -0.641863        -0.091076
 C        -1.464378         0.185460         0.091688
 C        -2.679461         1.031338         0.294223
 O        -2.604816         2.384646         0.089278
 C        -3.302364         0.464895         1.667685
 C        -4.473809        -0.497813         1.443250
 C        -5.152608        -1.036702         2.659669
 O        -4.552462        -1.135474         0.297364
 H         1.284181        -1.880441        -0.242142
 H         0.564184        -1.304488        -1.900104
 H         1.299515        -0.168620        -0.918099
 H        -3.501013         0.610494        -0.395461
 H        -1.794932         2.716519         0.365632
 H        -2.723634        -0.267865         2.242114
 H        -3.549827         1.364968         2.316902
 H        -4.883386        -0.358716         3.467949
 H        -6.219829        -0.881003         2.580971
 H        -4.850369        -2.065200         2.591051
