19
Iteration:  4648charge 0 multiplicity 1
 C         0.312971        -1.403067        -0.701285
 C        -0.576517        -0.357176        -0.190365
 C        -1.500808         0.173571         0.491069
 C        -2.699426         1.052387         0.243492
 O        -2.351933         2.453366         0.123843
 C        -3.800850         0.792202         1.414982
 C        -4.334467        -0.623500         1.371815
 C        -4.581537        -1.197482         2.769310
 O        -4.607861        -1.156725         0.211816
 H         1.425891        -1.321648        -0.465651
 H        -0.018190        -2.393594        -0.267793
 H         0.328440        -1.516506        -1.838522
 H        -3.153557         0.521992        -0.495829
 H        -1.435940         2.432179        -0.154340
 H        -3.611468         1.201791         2.410226
 H        -4.633381         1.360179         1.028854
 H        -3.537977        -1.333578         3.211977
 H        -5.240582        -0.527771         3.332825
 H        -4.858611        -2.228020         2.591561
