19
Iteration:   165charge 0 multiplicity 1
 C         1.465285        -0.007308         0.057729
 C         0.021866        -0.061898         0.065209
 C        -1.183153         0.030775         0.155894
 C        -2.601852         0.041623        -0.059567
 O        -3.000629         1.436698        -0.218344
 C        -3.167709        -0.465169         1.228628
 C        -4.741472        -0.407623         1.375375
 C        -5.464361        -1.640774         1.670575
 O        -5.220074         0.717330         1.406003
 H         1.666564         0.332702         1.038248
 H         2.053243        -0.869260        -0.168006
 H         1.781517         0.673278        -0.724617
 H        -2.873231        -0.644438        -0.892248
 H        -2.917988         1.556010        -1.250903
 H        -2.765203        -1.412700         1.438558
 H        -2.637420         0.158683         2.021761
 H        -5.565708        -1.809727         2.721310
 H        -6.476295        -1.674186         1.322700
 H        -4.970208        -2.436741         1.108562
