19
Iteration:  1100
 C         1.496511        -0.049682         0.252845
 C         0.069083         0.202664         0.110479
 C        -1.150393         0.084276         0.146354
 C        -2.541777         0.226197         0.002486
 O        -3.219354         1.575107         0.217290
 C        -3.193932        -0.624173         1.034665
 C        -4.673352        -0.579334         1.166933
 C        -5.284267        -0.737680         2.585819
 O        -5.327276        -0.384086         0.121252
 H         2.056401         0.580953        -0.418862
 H         1.847465         0.216061         1.259092
 H         1.659210        -1.115575         0.001851
 H        -2.805477        -0.013776        -1.095650
 H        -3.142981         1.969696        -0.619573
 H        -3.012392        -1.679669         0.717711
 H        -2.523002        -0.525552         1.913021
 H        -4.784580        -0.212142         3.464141
 H        -6.357008        -0.509660         2.520124
 H        -5.155020        -1.855633         2.750607
