19
Iteration:  3117
 C         0.737238        -1.081739        -0.582344
 C        -0.496627        -0.338597        -0.607594
 C        -1.561058         0.179970        -0.191708
 C        -2.679535         1.035687         0.194904
 O        -2.174230         2.338100         0.346503
 C        -3.583499         0.598577         1.470368
 C        -4.513938        -0.600399         1.445550
 C        -5.212066        -1.067431         2.812920
 O        -4.679033        -1.356469         0.478738
 H         0.920869        -1.773103         0.244188
 H         0.941191        -1.649320        -1.473860
 H         1.514552        -0.329795        -0.462509
 H        -3.433532         1.201276        -0.677939
 H        -1.286069         2.197770         0.622683
 H        -3.009261         0.231409         2.425544
 H        -4.079054         1.508652         1.702376
 H        -4.833414        -0.654524         3.766165
 H        -6.313815        -0.825277         2.782510
 H        -5.312442        -2.157150         2.864005
