19
Iteration:   875
 C         1.547689         0.055696         0.104461
 C         0.105635         0.046083         0.098007
 C        -1.090829         0.185783        -0.017527
 C        -2.541219         0.325745         0.074437
 O        -2.872747         1.495787         0.789978
 C        -3.350423        -0.781478         0.832103
 C        -4.847347        -0.671521         1.065246
 C        -5.256858        -0.057620         2.427454
 O        -5.555035        -0.997586         0.108472
 H         1.981057         0.989391        -0.230451
 H         1.871284        -0.225330         1.111874
 H         1.960658        -0.731506        -0.560208
 H        -2.832549         0.607218        -0.946780
 H        -3.187051         2.240524         0.294061
 H        -3.150385        -1.674323         0.309094
 H        -2.858688        -0.845890         1.825328
 H        -5.337135         1.015160         2.301504
 H        -6.259249        -0.251795         2.804592
 H        -4.442160        -0.187664         3.220578
