19
Iteration:  4102charge 0 multiplicity 1
 C         0.705668        -1.285757         0.038518
 C        -0.263363        -0.302597         0.506100
 C        -1.246791         0.359094         0.225892
 C        -2.587507         0.810770         0.037980
 O        -2.654196         2.181430        -0.313829
 C        -3.606085         0.668507         1.284209
 C        -4.466577        -0.506772         1.319525
 C        -4.064016        -1.938440         1.575160
 O        -5.681385        -0.223318         1.165879
 H         0.908390        -0.795874        -0.896701
 H         1.689674        -1.435725         0.545060
 H         0.191674        -2.316953        -0.083291
 H        -3.176533        -0.020864        -0.655047
 H        -3.322206         2.359861        -1.102528
 H        -2.986815         0.904180         2.165001
 H        -4.270816         1.537247         1.002768
 H        -3.209875        -2.325519         0.950377
 H        -3.611550        -1.980521         2.578451
 H        -4.793863        -2.698078         1.557419
