19
Iteration:   237charge 0 multiplicity 1
 C         1.450993        -0.300732         0.054898
 C         0.064605         0.050230        -0.024168
 C        -1.152447         0.105090         0.064225
 C        -2.670092         0.160874         0.086008
 O        -2.941475         1.613528        -0.014541
 C        -3.185783        -0.256638         1.365870
 C        -4.718803        -0.410242         1.251144
 C        -5.265564        -1.742511         1.804521
 O        -5.482395         0.503693         1.035974
 H         1.822348         0.031013         1.092774
 H         1.648700        -1.415494        -0.029736
 H         2.087175         0.029867        -0.781521
 H        -2.955928        -0.452304        -0.732816
 H        -2.727179         1.787506        -1.043180
 H        -2.672698        -1.225675         1.814692
 H        -2.968852         0.477460         2.100909
 H        -4.547158        -2.129299         2.615121
 H        -6.324683        -1.737409         2.072906
 H        -5.156851        -2.295344         0.850026
