19
Iteration:  4158charge 0 multiplicity 1
 C         0.934261        -1.137554         0.276906
 C        -0.318334        -0.448400        -0.029481
 C        -1.366826         0.168937        -0.027907
 C        -2.700036         0.797596         0.083691
 O        -2.719289         2.218596        -0.264894
 C        -3.472738         0.626808         1.434026
 C        -4.585859        -0.440152         1.383058
 C        -4.063253        -1.885704         1.616024
 O        -5.758568        -0.200513         1.121131
 H         1.901476        -0.982883        -0.252147
 H         1.160081        -0.882372         1.326362
 H         0.821588        -2.266491         0.238293
 H        -3.527171         0.134602        -0.532424
 H        -1.861105         2.350900        -0.666564
 H        -2.708822         0.420964         2.240640
 H        -3.882120         1.636853         1.619813
 H        -3.121932        -2.006494         0.993387
 H        -3.768190        -2.011609         2.675918
 H        -4.811684        -2.648709         1.343501
