19
Iteration:  4676
 C         0.475328        -1.369896        -0.733284
 C        -0.588068        -0.473673        -0.259324
 C        -1.505709         0.182570         0.196997
 C        -2.665132         1.040834         0.285967
 O        -2.399405         2.360766         0.335224
 C        -3.774019         0.855538         1.396742
 C        -4.392159        -0.595051         1.324049
 C        -4.728923        -1.059011         2.738534
 O        -4.537202        -1.249983         0.355546
 H         1.398167        -1.069986        -0.315320
 H         0.347170        -2.380649        -0.367611
 H         0.601302        -1.380712        -1.819369
 H        -3.295561         0.563021        -0.610630
 H        -1.797012         2.639772        -0.423316
 H        -3.394797         1.054942         2.418527
 H        -4.521654         1.654820         1.040584
 H        -3.866740        -1.188956         3.358367
 H        -5.488175        -0.387399         3.205674
 H        -5.109375        -2.080040         2.583927
