19
Iteration:  3735
 C         0.453878        -1.351627         0.139817
 C        -0.753065        -0.647724        -0.156544
 C        -1.678812         0.151981        -0.194249
 C        -2.770143         1.123016        -0.047109
 O        -2.218958         2.549920         0.134739
 C        -3.689642         0.837218         1.213534
 C        -4.302550        -0.580897         1.332859
 C        -3.838751        -1.662311         2.396538
 O        -5.374645        -0.821030         0.702387
 H         0.551628        -2.097553        -0.694431
 H         1.394595        -0.813048         0.038122
 H         0.547861        -1.852565         1.051950
 H        -3.373883         1.077873        -1.010702
 H        -1.905216         2.786345        -0.714143
 H        -3.193334         1.080291         2.122633
 H        -4.604828         1.423329         1.136400
 H        -2.778985        -1.675335         2.454974
 H        -4.186535        -1.196479         3.328021
 H        -4.294087        -2.639342         2.190648
