19
Iteration:  4895charge 0 multiplicity 1
 C         0.658626        -1.180342        -1.194068
 C        -0.260320        -0.270398        -0.444127
 C        -1.215466         0.195805         0.146505
 C        -2.591797         0.835366         0.373147
 O        -2.441798         2.367826         0.268503
 C        -3.590177         0.648335         1.618763
 C        -4.453410        -0.546506         1.545371
 C        -5.663704        -0.779391         2.621724
 O        -4.440569        -1.498797         0.729404
 H         1.665240        -1.432234        -0.726434
 H         0.243902        -2.219054        -1.282072
 H         0.825222        -0.887017        -2.303582
 H        -3.164040         0.462176        -0.439785
 H        -1.618392         2.284119        -0.128685
 H        -2.904928         0.422541         2.379559
 H        -4.237157         1.559182         1.881364
 H        -4.999057        -0.814929         3.467196
 H        -6.592548        -0.174658         2.432579
 H        -5.949896        -1.769580         2.280098
