19
Iteration:  3183
 C         0.573651        -1.089306        -0.597442
 C        -0.580024        -0.262772        -0.294119
 C        -1.708999         0.111722        -0.236335
 C        -2.848531         0.942153         0.129514
 O        -2.267259         2.236455         0.621966
 C        -3.460425         0.470452         1.413465
 C        -4.356820        -0.666955         1.307482
 C        -5.045197        -0.741692         2.711257
 O        -4.512998        -1.389320         0.377248
 H         0.816668        -1.907517         0.053382
 H         0.490899        -1.442406        -1.608721
 H         1.378804        -0.350289        -0.578895
 H        -3.677782         0.961323        -0.619193
 H        -1.381405         2.354363         0.098481
 H        -2.681198         0.446985         2.261179
 H        -4.079200         1.262723         1.749593
 H        -4.233118        -0.388996         3.392404
 H        -5.718446         0.140273         2.493068
 H        -5.572530        -1.638870         3.080514
