19
Iteration:  4731
 C         0.569650        -1.155928        -0.515763
 C        -0.751870        -0.474879        -0.391093
 C        -1.741559         0.197701        -0.285625
 C        -2.850385         1.032989         0.190522
 O        -2.229812         2.396090         0.392195
 C        -3.361106         0.578306         1.467281
 C        -4.317079        -0.688222         1.453599
 C        -5.058193        -0.890959         2.686125
 O        -4.479905        -1.365297         0.461818
 H         1.223573        -0.681961         0.150179
 H         0.538866        -2.195719        -0.235443
 H         0.886685        -1.091266        -1.553705
 H        -3.641929         1.095366        -0.599243
 H        -1.517383         2.470177        -0.344556
 H        -2.547297         0.446688         2.169635
 H        -4.020542         1.441236         1.802964
 H        -4.264098        -1.142426         3.378714
 H        -5.691848        -0.139017         3.193890
 H        -5.739754        -1.719423         2.623879
