19
Iteration:  4267charge 0 multiplicity 1
 C         0.898076        -0.856450         0.138030
 C        -0.562388        -0.524931         0.115705
 C        -1.727733        -0.170837         0.027871
 C        -2.781527         0.783914        -0.002112
 O        -2.207757         2.198487        -0.103589
 C        -3.633722         0.772890         1.233077
 C        -4.536774        -0.475081         1.406900
 C        -3.986535        -1.904867         1.690844
 O        -5.691427        -0.307460         1.113562
 H         1.355552         0.022317        -0.400517
 H         1.285894        -0.930777         1.162370
 H         1.066172        -1.823571        -0.389559
 H        -3.298173         0.748480        -0.964254
 H        -1.334262         2.173744         0.225020
 H        -2.934186         1.016074         2.137586
 H        -4.330568         1.618307         1.192175
 H        -3.131192        -2.019277         1.015670
 H        -3.795982        -1.859205         2.725050
 H        -4.836404        -2.506589         1.344386
