19
Iteration:  4116
 C         0.762004        -1.227021         0.046865
 C        -0.341766        -0.369959         0.449432
 C        -1.261918         0.396103         0.229879
 C        -2.631805         0.827266         0.039872
 O        -2.650097         2.216537        -0.361087
 C        -3.487882         0.672906         1.316734
 C        -4.546479        -0.535103         1.263931
 C        -4.091095        -1.980756         1.621710
 O        -5.664620        -0.248968         1.196847
 H         1.248990        -1.085396        -0.973566
 H         1.472366        -1.248318         0.877130
 H         0.328666        -2.224175        -0.078239
 H        -2.949171         0.352851        -0.906468
 H        -2.894050         2.226918        -1.253110
 H        -3.003015         0.616618         2.298326
 H        -4.179450         1.484782         1.424668
 H        -3.231745        -2.368691         0.938720
 H        -3.750425        -1.958372         2.722181
 H        -5.117947        -2.463933         1.496399
