19
Iteration:  3464
 C         0.352856        -1.218053        -0.073061
 C        -0.915991        -0.645480        -0.447558
 C        -1.840756         0.159296        -0.229882
 C        -2.860214         1.145063         0.216145
 O        -2.206216         2.450172         0.270802
 C        -3.552495         0.697211         1.462938
 C        -4.134152        -0.656030         1.366274
 C        -4.511855        -1.357262         2.671181
 O        -4.566043        -0.966691         0.249891
 H         0.212772        -2.358025         0.137396
 H         1.155831        -1.320083        -0.856764
 H         0.803052        -0.903263         0.895197
 H        -3.591986         1.226610        -0.531518
 H        -1.632119         2.536235        -0.564528
 H        -3.024512         0.944496         2.381343
 H        -4.464504         1.438218         1.405419
 H        -3.622006        -1.496468         3.303690
 H        -5.371847        -0.764222         3.080649
 H        -4.816862        -2.354180         2.324746
