19
Iteration:   357charge 0 multiplicity 1
 C         1.265193        -0.669142        -0.027392
 C        -0.039691        -0.088597        -0.051295
 C        -1.206975         0.253028         0.027236
 C        -2.582894         0.667596         0.247390
 O        -2.729730         1.975229         0.204526
 C        -3.215747        -0.033926         1.424519
 C        -4.723773        -0.527559         1.186293
 C        -5.082385        -1.701902         2.091818
 O        -5.538816        -0.142325         0.383994
 H         1.910657        -0.194921         0.774076
 H         1.300391        -1.763102         0.119446
 H         1.838738        -0.458196        -0.943688
 H        -3.351886         0.375603        -0.581520
 H        -3.227071         2.456037         0.904228
 H        -2.730281        -1.060649         1.834380
 H        -3.129595         0.588092         2.313731
 H        -5.148371        -1.408827         3.182116
 H        -6.079537        -1.997637         1.784925
 H        -4.342661        -2.449521         1.915269
