19
Iteration:   353charge 0 multiplicity 1
 C         1.291330        -0.651621        -0.018307
 C        -0.041748        -0.054731        -0.050899
 C        -1.217413         0.218040         0.053304
 C        -2.592873         0.633246         0.234429
 O        -2.713017         1.978763         0.187711
 C        -3.228687        -0.052558         1.441248
 C        -4.722423        -0.484240         1.194199
 C        -5.061280        -1.725694         2.075098
 O        -5.559688        -0.106536         0.381646
 H         1.858788        -0.275149         0.806118
 H         1.284137        -1.735540         0.058275
 H         1.810264        -0.582318        -0.980084
 H        -3.381871         0.365303        -0.507194
 H        -3.449728         2.347727         0.794166
 H        -2.738411        -0.960301         1.747006
 H        -3.045496         0.573646         2.360794
 H        -4.989829        -1.460080         3.142439
 H        -6.081341        -2.043729         1.827231
 H        -4.317150        -2.563642         1.994884
