19
Iteration:  3979
 C         0.583126        -1.072962         0.388386
 C        -0.725229        -0.435455         0.176068
 C        -1.706448         0.091400        -0.314161
 C        -2.763105         1.014296        -0.171274
 O        -2.080111         2.292944        -0.023484
 C        -3.566063         0.652943         1.147628
 C        -4.518747        -0.617551         1.279161
 C        -3.747426        -1.851980         1.755309
 O        -5.670635        -0.463766         1.256493
 H         1.168136        -1.214701        -0.548254
 H         1.226575        -0.479260         1.087334
 H         0.522529        -2.124505         0.828465
 H        -3.585975         1.016820        -0.832421
 H        -2.534704         2.903839        -0.706533
 H        -2.840462         0.664327         1.998255
 H        -4.348355         1.384147         1.393663
 H        -3.220062        -2.219034         0.850029
 H        -2.918659        -1.712739         2.435591
 H        -4.428407        -2.657175         2.162527
