19
Iteration:  3146
 C         0.724855        -1.015125        -0.559539
 C        -0.642191        -0.563473        -0.422749
 C        -1.621760         0.211029        -0.275438
 C        -2.735805         1.094923         0.083994
 O        -2.128903         2.451761         0.549909
 C        -3.495451         0.555947         1.329174
 C        -4.509350        -0.713300         1.409640
 C        -5.131512        -0.924891         2.748529
 O        -4.708469        -1.504533         0.504416
 H         1.209619        -1.716755         0.160651
 H         0.846039        -1.355152        -1.613635
 H         1.316352        -0.097998        -0.557529
 H        -3.350176         1.397675        -0.681905
 H        -1.124429         2.260298         0.413056
 H        -2.802159         0.141546         2.006462
 H        -3.901887         1.512282         1.719706
 H        -4.600463        -0.478139         3.594093
 H        -6.123971        -0.403366         2.920554
 H        -5.399915        -1.999670         2.918005
