19
Iteration:  2982charge 0 multiplicity 1
 C         0.619059        -1.333327        -0.604895
 C        -0.247845        -0.120098        -0.367786
 C        -1.424597         0.159674        -0.063887
 C        -2.667518         0.877619         0.282170
 O        -2.608706         2.317089         0.261414
 C        -3.398961         0.528109         1.605458
 C        -4.535220        -0.499109         1.325925
 C        -5.041135        -1.104364         2.718111
 O        -4.720963        -1.093124         0.321674
 H         0.718952        -2.002851         0.234143
 H         0.265514        -1.861875        -1.490265
 H         1.551139        -1.030782        -0.981953
 H        -3.304551         0.643857        -0.564275
 H        -1.896194         2.634686         0.765075
 H        -2.701753         0.288674         2.477583
 H        -3.877766         1.420267         1.992504
 H        -4.745268        -0.349485         3.504146
 H        -6.140677        -1.162803         2.793770
 H        -4.505960        -2.083880         2.699824
