19
Iteration:  4864
 C         0.605496        -1.163488        -1.012587
 C        -0.405973        -0.352066        -0.392133
 C        -1.347107         0.290755        -0.037289
 C        -2.583041         0.854730         0.333572
 O        -2.531555         2.356715         0.359168
 C        -3.402118         0.470825         1.499992
 C        -4.374839        -0.676929         1.527056
 C        -5.524582        -0.639780         2.645028
 O        -4.435891        -1.490327         0.607691
 H         1.543761        -1.126325        -0.516645
 H         0.347934        -2.248013        -1.006045
 H         0.815871        -0.862522        -2.082635
 H        -3.316357         0.688140        -0.523797
 H        -1.516782         2.530500         0.383649
 H        -2.760256         0.337031         2.363156
 H        -4.026874         1.346413         1.910020
 H        -5.175816        -0.505147         3.714798
 H        -6.153828         0.305612         2.339375
 H        -6.140721        -1.577333         2.706629
