19
Iteration:  2146
 C         0.705948        -1.110827         0.333946
 C        -0.625790        -0.544837         0.133728
 C        -1.613987         0.122334        -0.077677
 C        -2.729704         1.147652         0.061419
 O        -2.263188         2.432564         0.457199
 C        -3.894072         0.814474         1.121366
 C        -4.491058        -0.572997         1.081848
 C        -3.717859        -1.800016         1.692244
 O        -5.591694        -0.809219         0.653052
 H         1.389155        -0.347168         0.744539
 H         0.863832        -1.981426         0.968797
 H         0.995249        -1.510845        -0.641853
 H        -3.225825         1.164312        -0.993275
 H        -1.347466         2.213671         0.707681
 H        -3.297850         0.887704         2.021993
 H        -4.636671         1.610527         1.108144
 H        -2.922538        -1.562842         2.504283
 H        -4.537225        -2.377475         2.307263
 H        -3.509000        -2.545495         0.867788
