19
Iteration:  3438charge 0 multiplicity 1
 C         0.344923        -1.130716        -0.147251
 C        -0.982992        -0.629424        -0.383193
 C        -1.878758         0.146399        -0.178929
 C        -2.853221         1.258480         0.135928
 O        -1.974437         2.418744         0.314124
 C        -3.573288         0.848686         1.467761
 C        -4.273497        -0.630079         1.320750
 C        -4.626210        -1.332393         2.689326
 O        -4.546268        -1.300760         0.273394
 H         0.453933        -2.187904         0.127388
 H         0.956669        -1.135233        -1.064330
 H         0.872754        -0.578533         0.633340
 H        -3.587145         1.452043        -0.709738
 H        -1.639785         2.789565        -0.587974
 H        -2.786686         0.607469         2.195797
 H        -4.200922         1.622454         1.828877
 H        -3.596568        -1.472062         3.130263
 H        -5.403059        -0.818547         3.343251
 H        -4.881055        -2.368682         2.352580
