19
Iteration:   188charge 0 multiplicity 1
 C         1.565543        -0.079346         0.072658
 C         0.072354        -0.126202         0.056857
 C        -1.133460         0.037301         0.053780
 C        -2.624065         0.203369        -0.008184
 O        -2.963255         1.537251        -0.305678
 C        -3.207972        -0.420138         1.345283
 C        -4.733625        -0.429343         1.396965
 C        -5.444605        -1.726153         1.693135
 O        -5.334955         0.646487         1.295728
 H         1.923318         0.255734         1.007546
 H         2.019844        -1.027297        -0.143385
 H         1.910973         0.517152        -0.770062
 H        -2.904565        -0.480903        -0.831070
 H        -3.891455         1.573234         0.000408
 H        -2.818071        -1.373180         1.466534
 H        -2.706757         0.193572         2.144371
 H        -5.334199        -1.729566         2.743974
 H        -6.503325        -1.526923         1.530291
 H        -5.143081        -2.640677         1.213442
