19
Iteration:   874charge 0 multiplicity 1
 C         1.549924         0.048136         0.098103
 C         0.104456         0.050721         0.094942
 C        -1.095910         0.194136        -0.006521
 C        -2.542250         0.314070         0.077097
 O        -2.874952         1.496187         0.793992
 C        -3.344025        -0.772435         0.829542
 C        -4.847300        -0.679699         1.076009
 C        -5.255394        -0.051781         2.421127
 O        -5.555711        -0.998270         0.106908
 H         1.980133         0.994855        -0.213230
 H         1.896136        -0.220572         1.120110
 H         1.963322        -0.754269        -0.576565
 H        -2.844300         0.602472        -0.952076
 H        -3.151954         2.285306         0.256675
 H        -3.159231        -1.667658         0.287329
 H        -2.853016        -0.830444         1.827562
 H        -5.348958         1.000862         2.289639
 H        -6.256933        -0.268881         2.771854
 H        -4.467681        -0.206894         3.206490
