19
Iteration:  2176
 C         0.743883        -1.103381         0.228056
 C        -0.459059        -0.350281         0.052979
 C        -1.553782         0.150675         0.080838
 C        -2.712714         1.107836         0.121425
 O        -2.139489         2.380667         0.366168
 C        -3.932138         0.653413         1.093701
 C        -4.625167        -0.647134         1.128047
 C        -3.808386        -1.734317         1.792799
 O        -5.742611        -0.798013         0.634680
 H         1.608793        -0.537717         0.783586
 H         0.690716        -2.065940         0.779420
 H         1.011244        -1.411918        -0.816655
 H        -2.835862         1.213235        -1.017515
 H        -1.490367         2.176247         1.032609
 H        -3.492274         0.993809         2.085100
 H        -4.718950         1.415708         0.958980
 H        -3.457835        -1.350465         2.748422
 H        -4.406347        -2.625940         1.812451
 H        -2.933699        -1.860708         1.166566
