19
Iteration:  1168charge 0 multiplicity 1
 C         1.530757        -0.042900         0.111563
 C         0.051450        -0.034115         0.037327
 C        -1.181269        -0.002614         0.031292
 C        -2.726907         0.373335         0.032505
 O        -2.784992         1.862306         0.087732
 C        -3.270591        -0.193449         1.260914
 C        -4.781629        -0.602737         1.272169
 C        -5.574195        -1.139336         2.521384
 O        -5.194648        -0.569814         0.151210
 H         2.001754         0.590211        -0.595386
 H         1.836075         0.371811         1.084339
 H         1.882499        -1.096665        -0.029538
 H        -3.276523        -0.085363        -0.827150
 H        -2.422701         2.091851         0.996313
 H        -2.777548        -1.151164         1.372193
 H        -3.097892         0.350565         2.227596
 H        -6.142183        -0.401474         3.041027
 H        -6.346459        -1.762159         1.976756
 H        -4.839924        -1.708325         3.213671
