19
Iteration:  2317charge 0 multiplicity 1
 C         0.745229        -1.208354         0.159010
 C        -0.519050        -0.404482         0.172186
 C        -1.623116         0.140214         0.114342
 C        -2.893962         0.982770         0.150508
 O        -2.551575         2.361778         0.054140
 C        -3.635258         0.673975         1.497814
 C        -4.400937        -0.528213         1.221273
 C        -3.927158        -1.822316         1.758697
 O        -5.342158        -0.512797         0.479271
 H         1.542128        -0.764711         0.835865
 H         0.651904        -2.266067         0.373924
 H         1.159664        -1.137398        -0.856954
 H        -3.594116         0.804522        -0.663033
 H        -1.774538         2.551296         0.526125
 H        -2.943512         0.679139         2.405582
 H        -4.456710         1.402498         1.602953
 H        -3.749659        -2.605962         1.021045
 H        -3.056715        -1.756151         2.402682
 H        -4.727911        -2.290171         2.441092
