19
Iteration:  4365
 C         0.499096        -1.350465        -0.075603
 C        -0.521441        -0.508536         0.374441
 C        -1.466047         0.251866         0.331405
 C        -2.617751         1.043598        -0.029074
 O        -2.423095         2.429254        -0.059552
 C        -3.765976         0.717638         0.986676
 C        -4.419558        -0.559344         1.278323
 C        -3.817101        -1.880844         1.929871
 O        -5.570484        -0.502352         0.997587
 H         1.241613        -0.614697        -0.429216
 H         0.881972        -2.064282         0.631888
 H         0.105886        -1.873901        -0.959962
 H        -2.953895         0.672393        -0.986560
 H        -1.458007         2.512353         0.000975
 H        -3.127884         1.072620         1.880304
 H        -4.590029         1.401898         0.814156
 H        -3.033127        -2.206301         1.239419
 H        -3.511403        -1.474174         2.857520
 H        -4.653182        -2.619683         1.928191
