19
Iteration:   291
 C         1.403663        -0.462261        -0.023979
 C        -0.009041        -0.273154         0.145605
 C        -1.128809         0.188124         0.003577
 C        -2.588388         0.536024         0.123183
 O        -2.956063         1.884825        -0.101175
 C        -3.235581        -0.137950         1.477870
 C        -4.671261        -0.472468         1.375794
 C        -5.194065        -1.767101         1.838869
 O        -5.516029         0.155528         0.759921
 H         1.987049         0.109148         0.763360
 H         1.701509        -1.524380         0.006137
 H         1.687029         0.163806        -0.868956
 H        -2.986128        -0.018389        -0.744227
 H        -2.231768         2.365650         0.493517
 H        -2.571935        -1.073208         1.811646
 H        -3.226611         0.600915         2.262883
 H        -4.727515        -2.211881         2.766203
 H        -6.223190        -1.706522         2.163061
 H        -5.076911        -2.475957         1.029942
