19
Iteration:  3858
 C         0.413661        -1.479408         0.030943
 C        -0.717748        -0.567994         0.346964
 C        -1.582890         0.285685         0.350676
 C        -2.791554         1.129118         0.126453
 O        -2.366082         2.360061        -0.383217
 C        -3.732964         0.922494         1.394017
 C        -4.324364        -0.572296         1.334156
 C        -3.571652        -1.779526         1.744000
 O        -5.423429        -0.615737         0.869913
 H         0.453743        -1.833510        -1.051815
 H         1.395773        -1.048873         0.279482
 H         0.443281        -2.416402         0.598018
 H        -3.314581         0.690894        -0.688783
 H        -3.039497         3.012492        -0.376116
 H        -3.249119         1.233271         2.336713
 H        -4.552254         1.635549         1.257012
 H        -3.078541        -2.207893         0.801502
 H        -2.721058        -1.550677         2.458326
 H        -4.306919        -2.481599         2.197177
