19
Iteration:  2903
 C         0.709660        -1.043726        -0.391467
 C        -0.645641        -0.475439        -0.301612
 C        -1.753579         0.072145        -0.174100
 C        -2.858479         0.968856         0.161124
 O        -2.274983         2.275574         0.318469
 C        -3.426658         0.584098         1.491001
 C        -4.445270        -0.575139         1.377384
 C        -4.758869        -1.203154         2.702891
 O        -4.829875        -0.948381         0.274351
 H         0.896125        -1.599746         0.519746
 H         0.760842        -1.848588        -1.110737
 H         1.517534        -0.328231        -0.526750
 H        -3.570241         1.035850        -0.607618
 H        -1.397765         2.120609         0.572757
 H        -2.560363         0.219902         1.998187
 H        -3.800804         1.526641         1.912116
 H        -5.057463        -0.404724         3.463802
 H        -5.458556        -2.023254         2.473947
 H        -3.783463        -1.686073         2.936609
