19
Iteration:   196charge 0 multiplicity 1
 C         1.616528        -0.139658         0.050260
 C         0.096134        -0.100813         0.072067
 C        -1.138524         0.056113         0.011076
 C        -2.609331         0.155937        -0.003577
 O        -3.003428         1.571675        -0.312489
 C        -3.181437        -0.385569         1.369810
 C        -4.754914        -0.425005         1.408381
 C        -5.451358        -1.673634         1.711350
 O        -5.372290         0.608435         1.248896
 H         1.943308         0.308176         1.023849
 H         2.107379        -1.129044        -0.056498
 H         1.963057         0.605062        -0.693975
 H        -3.207844        -0.476598        -0.779717
 H        -3.568132         1.811351         0.391839
 H        -2.756016        -1.425095         1.389926
 H        -2.831576         0.138478         2.302613
 H        -5.300073        -2.009814         2.821824
 H        -6.531447        -1.771861         1.574638
 H        -5.023842        -2.564180         1.133315
