19
Iteration:  2603
 C         0.192820        -1.526919        -0.093114
 C        -0.748102        -0.469081        -0.003416
 C        -1.695611         0.327728        -0.043996
 C        -2.822991         1.209925         0.069178
 O        -2.317235         2.591807         0.436052
 C        -3.767752         0.886646         1.221487
 C        -4.157204        -0.697487         1.184855
 C        -3.916493        -1.554710         2.473589
 O        -4.932751        -1.044074         0.213992
 H         0.699842        -1.763867         0.829233
 H        -0.488301        -2.327110        -0.272643
 H         0.877970        -1.469029        -0.888147
 H        -3.207025         1.240249        -0.906088
 H        -1.716396         2.352758         1.107007
 H        -3.225416         1.040879         2.114481
 H        -4.720708         1.434241         1.464568
 H        -3.346332        -2.433571         2.111159
 H        -3.223333        -0.874830         3.104775
 H        -4.940696        -1.882254         2.734278
