19
Iteration:  2980charge 0 multiplicity 1
 C         0.626146        -1.321069        -0.587115
 C        -0.257198        -0.142702        -0.376655
 C        -1.433223         0.175901        -0.061905
 C        -2.681450         0.875994         0.293344
 O        -2.598023         2.324196         0.260270
 C        -3.395034         0.530058         1.576139
 C        -4.507234        -0.491069         1.352442
 C        -5.041322        -1.104852         2.716577
 O        -4.740267        -1.105142         0.313631
 H         0.734182        -2.052662         0.214997
 H         0.193688        -1.846603        -1.473651
 H         1.605969        -0.978163        -0.971410
 H        -3.309137         0.657597        -0.498907
 H        -1.799023         2.637312         0.799253
 H        -2.701150         0.175827         2.345150
 H        -3.952386         1.435512         1.982082
 H        -4.712016        -0.319564         3.477978
 H        -6.146643        -1.223630         2.800251
 H        -4.495458        -2.075785         2.689363
