19
Iteration:  2682
 C         0.170510        -1.525083        -0.023041
 C        -0.936119        -0.581562         0.071029
 C        -1.808885         0.224435        -0.187992
 C        -2.869143         1.180550         0.089268
 O        -2.474410         2.588199         0.363038
 C        -3.459068         0.721126         1.497675
 C        -4.127519        -0.629307         1.233694
 C        -4.030042        -1.531998         2.399630
 O        -4.682127        -0.826582         0.092141
 H         0.767702        -1.637761         0.845907
 H        -0.162864        -2.447332        -0.459330
 H         0.770272        -1.072125        -0.800665
 H        -3.620201         1.167348        -0.693970
 H        -1.553794         2.650586         0.388101
 H        -2.708185         0.657786         2.262253
 H        -4.318162         1.423692         1.662121
 H        -3.118049        -1.246854         2.965093
 H        -4.971198        -1.142880         2.928070
 H        -4.132222        -2.641453         2.156877
