19
Iteration:   452charge 0 multiplicity 1
 C         1.208991        -0.723744        -0.225247
 C        -0.139086        -0.106128        -0.136292
 C        -1.270711         0.269026         0.107993
 C        -2.602799         0.766891         0.231180
 O        -2.727273         2.221604         0.567573
 C        -3.356891        -0.101336         1.440190
 C        -4.681334        -0.681608         1.117064
 C        -5.364301        -1.359791         2.361013
 O        -5.038957        -0.632764        -0.035821
 H         1.974052        -0.201472         0.374598
 H         1.204765        -1.776527         0.087972
 H         1.672772        -0.668736        -1.232724
 H        -3.072155         0.751605        -0.757406
 H        -2.495613         2.264844         1.533960
 H        -2.614915        -0.716021         1.842384
 H        -3.380663         0.593648         2.308044
 H        -5.635318        -0.497844         3.035020
 H        -6.396288        -1.613306         2.128768
 H        -4.803416        -2.127209         2.915210
