19
Iteration:  4934charge 0 multiplicity 1
 C         0.605973        -0.942009        -1.162395
 C        -0.515722        -0.497039        -0.334746
 C        -1.467997         0.046581         0.268551
 C        -2.754264         0.787641         0.390008
 O        -2.337584         2.216211         0.269988
 C        -3.527162         0.617341         1.559565
 C        -4.347041        -0.629751         1.566003
 C        -5.505518        -0.623815         2.576545
 O        -4.228865        -1.380557         0.568059
 H         1.498956        -0.921041        -0.499823
 H         0.501710        -1.959546        -1.507447
 H         0.784869        -0.281716        -1.955446
 H        -3.354825         0.440858        -0.572315
 H        -1.935154         2.379937        -0.663051
 H        -2.803520         0.635843         2.466900
 H        -4.165073         1.423574         1.792706
 H        -5.334748        -0.708773         3.678674
 H        -6.174513         0.228773         2.513106
 H        -6.051416        -1.562639         2.506340
