19
Iteration:  2037
 C         0.422296        -1.533068         0.310631
 C        -0.660107        -0.466731         0.337476
 C        -1.457591         0.474477         0.204563
 C        -2.691384         1.190784         0.175389
 O        -2.789854         2.594782         0.216162
 C        -3.705315         0.688684         1.362390
 C        -4.237452        -0.677399         1.048092
 C        -3.615905        -1.921302         1.652165
 O        -5.288630        -0.614953         0.343316
 H         1.441780        -1.204814         0.475448
 H         0.203819        -2.219461         1.130903
 H         0.270677        -2.125349        -0.593628
 H        -3.193357         0.741868        -0.693420
 H        -1.883810         3.000526        -0.070880
 H        -3.163631         0.755899         2.314865
 H        -4.449304         1.484061         1.294575
 H        -3.660041        -2.799969         0.911940
 H        -2.756916        -1.857289         2.417697
 H        -4.505671        -2.304254         2.286901
