19
Iteration:    66
 C         1.479063         0.234603         0.068531
 C         0.077360        -0.067839         0.026235
 C        -1.158716        -0.165917        -0.005183
 C        -2.634705        -0.177893         0.025042
 O        -3.129574         1.093924        -0.633841
 C        -3.164219        -0.489784         1.527626
 C        -4.629741        -0.219226         1.581105
 C        -5.481336        -1.478820         1.210300
 O        -5.162137         0.876204         1.835442
 H         1.701225         0.497994         1.100425
 H         2.206947        -0.510779        -0.208700
 H         1.605537         1.168140        -0.473279
 H        -3.086396        -0.939163        -0.554091
 H        -3.111516         1.664734         0.123283
 H        -3.070202        -1.579397         1.654470
 H        -2.658341         0.074091         2.328041
 H        -5.199421        -2.449302         1.587389
 H        -6.491312        -1.161247         1.418279
 H        -5.369977        -1.706118         0.135406
