19
Iteration:  1521
 C         0.836900        -0.876064        -0.164538
 C        -0.496249        -0.333226         0.042026
 C        -1.586917         0.173709         0.359002
 C        -2.738600         1.021981         0.309274
 O        -2.370580         2.484063         0.494519
 C        -3.983788         0.699821         1.405430
 C        -4.543469        -0.751344         1.047877
 C        -4.908527        -1.643331         2.262517
 O        -4.424818        -1.128633        -0.092781
 H         1.149766        -0.356999        -1.131661
 H         1.565420        -0.552458         0.582998
 H         0.787845        -1.931679        -0.402678
 H        -3.203040         0.816813        -0.603905
 H        -1.359264         2.455751         0.254430
 H        -3.739254         0.770033         2.478689
 H        -4.898251         1.345117         1.262656
 H        -5.046949        -1.069595         3.244876
 H        -5.779559        -2.236112         1.953951
 H        -3.961559        -2.246559         2.302675
