19
Iteration:  3007charge 0 multiplicity 1
 C         0.640299        -1.302039        -0.712708
 C        -0.323611        -0.283195        -0.327696
 C        -1.328691         0.320644         0.043849
 C        -2.683907         0.851920         0.342736
 O        -2.652537         2.301829         0.144279
 C        -3.418596         0.513319         1.601267
 C        -4.359475        -0.617493         1.420980
 C        -5.191493        -1.101581         2.709593
 O        -4.644572        -0.975403         0.336677
 H         0.759320        -2.063417         0.070347
 H         0.242042        -1.784446        -1.611187
 H         1.597627        -0.980346        -1.121410
 H        -3.301425         0.451309        -0.554094
 H        -1.964260         2.665165         0.752519
 H        -2.690101         0.361199         2.464102
 H        -4.026025         1.306733         1.983277
 H        -4.987816        -0.481816         3.549280
 H        -6.250238        -0.952729         2.507278
 H        -4.898860        -2.139762         2.831882
