19
Iteration:  4162
 C         0.926423        -1.133016         0.316558
 C        -0.309326        -0.440290        -0.054236
 C        -1.383080         0.153694        -0.081226
 C        -2.731822         0.761790         0.088086
 O        -2.720035         2.169331        -0.223728
 C        -3.468393         0.659408         1.421311
 C        -4.532283        -0.446477         1.389938
 C        -4.054607        -1.879884         1.603885
 O        -5.764697        -0.176179         1.113714
 H         1.845260        -0.898329        -0.306376
 H         1.187107        -0.842491         1.335846
 H         0.858297        -2.181645         0.189162
 H        -3.492509         0.252835        -0.562481
 H        -1.795899         2.350973        -0.534239
 H        -2.893590         0.431641         2.323287
 H        -3.891671         1.629941         1.568977
 H        -3.114693        -1.962019         1.015703
 H        -3.780016        -1.920906         2.710354
 H        -4.845754        -2.644366         1.330498
