19
Iteration:  4349
 C         0.703781        -1.336597        -0.085956
 C        -0.477339        -0.526671         0.213165
 C        -1.432191         0.238207         0.326418
 C        -2.667676         1.001107         0.069905
 O        -2.393453         2.434482        -0.102976
 C        -3.761905         0.839621         1.063997
 C        -4.491960        -0.562591         1.226824
 C        -3.933072        -1.856547         1.890527
 O        -5.645165        -0.550116         1.078892
 H         1.602742        -0.777031        -0.413100
 H         1.066432        -1.884938         0.811411
 H         0.490215        -2.055355        -0.901258
 H        -2.936305         0.661683        -1.074939
 H        -1.416839         2.675572         0.048841
 H        -3.601317         1.203534         2.041219
 H        -4.614430         1.341882         0.575445
 H        -3.114603        -2.380121         1.375608
 H        -3.650318        -1.774845         2.990866
 H        -4.785623        -2.513384         2.007591
