19
Iteration:  3148
 C         0.723897        -1.020061        -0.571976
 C        -0.644277        -0.555687        -0.395380
 C        -1.637292         0.196744        -0.281979
 C        -2.728782         1.110813         0.085438
 O        -2.138247         2.438143         0.558855
 C        -3.498080         0.549561         1.327489
 C        -4.470538        -0.689800         1.406896
 C        -5.121178        -0.918951         2.747366
 O        -4.718085        -1.521160         0.487737
 H         1.167046        -1.702963         0.173390
 H         0.865679        -1.324236        -1.599545
 H         1.261316        -0.099076        -0.564096
 H        -3.414401         1.391994        -0.691808
 H        -1.127481         2.287962         0.415971
 H        -2.763080         0.145858         2.067416
 H        -3.936242         1.437371         1.724362
 H        -4.607306        -0.462364         3.624475
 H        -6.092917        -0.279174         2.822605
 H        -5.399303        -1.982360         2.978870
