19
Iteration:   425charge 0 multiplicity 1
 C         1.182565        -0.725747        -0.147742
 C        -0.179999        -0.076648        -0.005706
 C        -1.331903         0.303485         0.005371
 C        -2.691298         0.713565         0.292979
 O        -2.619909         2.082167         0.517645
 C        -3.267590        -0.082417         1.526384
 C        -4.653003        -0.545698         1.135355
 C        -5.167149        -1.377353         2.210608
 O        -5.217216        -0.543413         0.007805
 H         1.883737        -0.191323         0.533538
 H         1.280168        -1.822204         0.052031
 H         1.565572        -0.603057        -1.204359
 H        -3.254654         0.446979        -0.654678
 H        -3.576471         2.380893         0.431747
 H        -2.495379        -0.914061         1.706905
 H        -3.178324         0.540573         2.458162
 H        -5.327458        -0.796757         3.115819
 H        -6.122140        -1.874459         1.943340
 H        -4.361311        -2.100862         2.507396
