19
Iteration:  2025
 C         0.316983        -1.523846         0.301653
 C        -0.591403        -0.508940         0.356320
 C        -1.360121         0.457507         0.216741
 C        -2.734240         1.182571         0.193584
 O        -2.794742         2.651130         0.222923
 C        -3.556136         0.766010         1.386914
 C        -4.319535        -0.630844         1.037926
 C        -3.736028        -1.960578         1.660467
 O        -5.267344        -0.753394         0.315869
 H         1.273718        -0.978448         0.325596
 H         0.279039        -2.208119         1.128422
 H         0.388160        -2.054887        -0.630058
 H        -3.193949         0.987033        -0.770155
 H        -2.046898         3.055788        -0.145111
 H        -3.101424         0.966562         2.345655
 H        -4.512243         1.276611         1.369981
 H        -3.625831        -2.810962         0.892896
 H        -2.624102        -1.687156         1.922511
 H        -4.375890        -2.087109         2.613509
