19
Iteration:  1466charge 0 multiplicity 1
 C         0.904028        -0.835420        -0.108040
 C        -0.507314        -0.244437         0.151001
 C        -1.639794         0.183928         0.098957
 C        -2.806953         1.012529         0.333633
 O        -2.460507         2.498972         0.377381
 C        -3.648608         0.454833         1.396771
 C        -4.447190        -0.756444         1.084973
 C        -5.089575        -1.517505         2.244686
 O        -4.446150        -1.125001        -0.052814
 H         1.393043        -0.443947        -1.036624
 H         1.513792        -0.563129         0.746128
 H         0.860214        -1.914988        -0.195165
 H        -3.415563         0.845733        -0.503019
 H        -2.193782         2.763948         1.291065
 H        -3.037503         0.114662         2.243112
 H        -4.431867         1.162599         1.752039
 H        -4.464784        -1.406578         3.180553
 H        -6.165818        -1.317829         2.371144
 H        -4.983893        -2.611214         2.028042
