19
Iteration:   894
 C         1.561753         0.140217         0.237638
 C         0.060139         0.011357         0.091875
 C        -1.142978         0.008886        -0.146635
 C        -2.564620         0.289019        -0.004803
 O        -2.822514         1.618413         0.796943
 C        -3.249424        -0.895980         0.827886
 C        -4.803027        -0.583155         1.015213
 C        -5.188374        -0.054372         2.427422
 O        -5.640243        -0.926257         0.156774
 H         1.785760         1.167726        -0.084366
 H         1.998387         0.107147         1.280097
 H         2.122342        -0.616090        -0.409245
 H        -3.219477         0.407827        -0.937457
 H        -3.728411         1.745572         0.664270
 H        -3.264806        -1.847586         0.266814
 H        -2.761401        -0.909323         1.830877
 H        -5.342767         1.020064         2.508171
 H        -6.125450        -0.542076         2.668869
 H        -4.436125        -0.451294         3.079917
