19
Iteration:  1248charge 0 multiplicity 1
 C         1.400533        -0.399266        -0.236670
 C        -0.021846         0.004092         0.167745
 C        -1.194742         0.259044         0.300597
 C        -2.587430         0.554067         0.192897
 O        -2.695760         1.980758         0.259638
 C        -3.461752         0.101531         1.475789
 C        -4.752376        -0.638341         1.161671
 C        -5.491979        -1.274407         2.368700
 O        -5.090119        -0.863511         0.037530
 H         1.670034         0.117910        -1.212949
 H         2.013507        -0.184111         0.627766
 H         1.388413        -1.463719        -0.344565
 H        -3.165707         0.044300        -0.575994
 H        -2.352393         2.203940        -0.682895
 H        -2.960306        -0.378564         2.321255
 H        -3.906182         1.021443         1.857231
 H        -6.531538        -1.149115         1.941776
 H        -5.202899        -2.310665         2.312919
 H        -5.338187        -0.881991         3.341873
