19
Iteration:  2524charge 0 multiplicity 1
 C         0.219455        -1.426495        -0.189436
 C        -0.721503        -0.385691         0.065538
 C        -1.713769         0.185521         0.354054
 C        -2.749825         1.152131         0.291061
 O        -2.253893         2.468845         0.220750
 C        -3.937610         0.910182         1.203963
 C        -4.319040        -0.577505         1.225463
 C        -3.738426        -1.541510         2.204431
 O        -5.002377        -1.046535         0.251554
 H         0.856584        -1.502637         0.711385
 H        -0.250027        -2.403247        -0.297385
 H         0.883719        -1.292128        -1.042480
 H        -3.215035         0.997454        -0.679288
 H        -1.746359         2.522589         1.049599
 H        -3.818665         1.042237         2.300899
 H        -4.636748         1.646158         0.916732
 H        -4.539421        -2.344564         2.378579
 H        -2.874007        -1.986788         1.602140
 H        -3.309903        -1.045327         3.150960
