19
Iteration:   801
 C         1.387871        -0.255116        -0.239173
 C         0.056687         0.044321         0.049446
 C        -1.109270         0.339079         0.178641
 C        -2.572398         0.447853         0.247724
 O        -2.946719         1.710537         0.948209
 C        -3.212737        -0.657659         1.127900
 C        -4.683193        -0.723935         0.979725
 C        -5.430555         0.026693         2.156188
 O        -5.266376        -1.258454         0.052912
 H         1.874501         0.731914        -0.443162
 H         1.949864        -0.734576         0.567074
 H         1.504486        -0.847604        -1.135705
 H        -2.956228         0.541547        -0.767596
 H        -3.822982         2.039984         0.531319
 H        -2.764598        -1.633712         0.892712
 H        -2.986504        -0.355270         2.180032
 H        -5.139551         1.041406         2.525743
 H        -6.524479         0.041542         2.013986
 H        -5.244565        -0.570042         3.133191
