19
Iteration:  3686
 C         0.359842        -1.151332         0.103691
 C        -0.848532        -0.410616        -0.242308
 C        -2.033078        -0.050955        -0.211275
 C        -2.907947         1.074055        -0.049359
 O        -2.118552         2.191632         0.208244
 C        -3.569481         0.766306         1.237815
 C        -4.291238        -0.506400         1.301566
 C        -3.833681        -1.447290         2.471433
 O        -5.132229        -0.789379         0.512168
 H         0.669746        -2.085847        -0.377869
 H         1.300354        -0.551598         0.039397
 H         0.303863        -1.313642         1.259673
 H        -3.549741         1.192354        -0.868313
 H        -1.323312         1.828257         0.743940
 H        -2.722041         0.723832         2.004363
 H        -4.265181         1.550311         1.658067
 H        -2.727045        -1.353517         2.687680
 H        -4.404846        -1.074301         3.321681
 H        -4.071700        -2.452951         2.160735
