19
Iteration:  4373
 C         0.448611        -1.385131        -0.076467
 C        -0.554800        -0.495408         0.446267
 C        -1.475091         0.272702         0.313332
 C        -2.683045         0.995173        -0.057312
 O        -2.422592         2.449132        -0.037897
 C        -3.664658         0.741798         1.018036
 C        -4.413758        -0.561556         1.278009
 C        -3.758064        -1.822392         1.898435
 O        -5.611429        -0.533039         0.954642
 H         1.234706        -0.790714        -0.412667
 H         0.938393        -2.106845         0.562091
 H         0.034897        -1.837520        -1.014051
 H        -2.845781         0.742325        -1.215492
 H        -1.485811         2.578233        -0.035951
 H        -3.185176         0.993146         1.941233
 H        -4.476611         1.421166         0.862025
 H        -2.903496        -2.139577         1.316485
 H        -3.381140        -1.613440         2.921774
 H        -4.481095        -2.641612         2.100112
