19
Iteration:  3157charge 0 multiplicity 1
 C         0.698044        -1.000726        -0.615423
 C        -0.663477        -0.508925        -0.300735
 C        -1.693144         0.148359        -0.305934
 C        -2.711746         1.143105         0.110733
 O        -2.180502         2.362946         0.579683
 C        -3.484638         0.510266         1.341953
 C        -4.371670        -0.709942         1.323044
 C        -5.089884        -0.837714         2.757880
 O        -4.718477        -1.506778         0.479509
 H         0.993001        -1.734032         0.175483
 H         0.886244        -1.466104        -1.607313
 H         1.325057        -0.115092        -0.484357
 H        -3.393818         1.275853        -0.656014
 H        -1.177588         2.409945         0.435990
 H        -2.731704         0.407230         2.076220
 H        -4.141349         1.251490         1.853127
 H        -4.507373        -0.464845         3.601893
 H        -5.900497        -0.163854         2.463780
 H        -5.433504        -1.877837         2.968339
