19
Iteration:   366
 C         1.280892        -0.681074        -0.043844
 C        -0.069139        -0.159058        -0.045166
 C        -1.179181         0.310427        -0.009129
 C        -2.600772         0.622105         0.220037
 O        -2.763383         2.097136         0.232076
 C        -3.250087        -0.048019         1.428265
 C        -4.696369        -0.594247         1.214966
 C        -5.140031        -1.654233         2.115531
 O        -5.486601        -0.185519         0.366529
 H         1.845746        -0.172775         0.756807
 H         1.266633        -1.740615         0.178161
 H         1.788496        -0.402071        -0.957244
 H        -2.957234         0.173835        -0.755835
 H        -2.756958         2.371377         1.185215
 H        -2.530513        -0.934256         1.726281
 H        -3.373760         0.647546         2.264950
 H        -5.231971        -1.363634         3.200220
 H        -6.074195        -2.051688         1.743645
 H        -4.415275        -2.455853         2.014073
