19
Iteration:  1616
 C         0.586800        -1.246809         0.071260
 C        -0.502710        -0.212909        -0.096812
 C        -1.457742         0.490887         0.092933
 C        -2.686207         1.222306         0.253944
 O        -2.578288         2.658104         0.661095
 C        -3.701698         0.559047         1.323921
 C        -4.302116        -0.767118         0.979763
 C        -4.672518        -1.654049         2.212468
 O        -4.690771        -1.293792        -0.049516
 H         1.357673        -1.205984        -0.715284
 H         0.988542        -1.063153         1.082046
 H        -0.044219        -2.184205         0.045054
 H        -3.304959         1.327968        -0.775460
 H        -1.729642         2.944179         0.921128
 H        -3.174684         0.530523         2.296157
 H        -4.557491         1.225689         1.511806
 H        -5.754123        -1.952809         2.066065
 H        -4.238795        -2.615184         1.985102
 H        -4.664622        -1.343032         3.248267
