19
Iteration:  1821
 C         0.552983        -1.233013        -0.088501
 C        -0.647012        -0.500611         0.023070
 C        -1.562779         0.264360         0.351609
 C        -2.655057         1.253825         0.268747
 O        -2.410374         2.636423         0.678960
 C        -3.949587         0.723491         1.154924
 C        -4.375067        -0.699874         0.946890
 C        -4.219252        -1.572447         2.190210
 O        -4.893602        -1.208337        -0.024878
 H         1.229013        -0.580134        -0.653756
 H         0.995851        -1.399416         0.937935
 H         0.383368        -2.168117        -0.756076
 H        -3.019547         1.295146        -0.738000
 H        -1.918082         2.488208         1.474772
 H        -3.795258         0.651209         2.260801
 H        -4.630061         1.623550         0.913533
 H        -3.386430        -1.095741         2.790663
 H        -5.187431        -1.728667         2.675781
 H        -3.814570        -2.579945         1.971703
