19
Iteration:  3814charge 0 multiplicity 1
 C         0.271428        -1.587156        -0.141317
 C        -0.515982        -0.433829         0.260768
 C        -1.438761         0.297834         0.517125
 C        -2.743682         0.942940         0.228665
 O        -2.451985         2.347915        -0.257053
 C        -3.787955         0.943766         1.409474
 C        -4.376324        -0.446540         1.320285
 C        -3.525743        -1.546604         1.839311
 O        -5.417836        -0.767062         0.690521
 H        -0.070927        -2.030483        -1.115379
 H         1.323580        -1.312289        -0.078185
 H         0.084371        -2.329272         0.618905
 H        -3.101929         0.372207        -0.692987
 H        -3.192977         2.473717        -0.800385
 H        -3.358275         1.237766         2.369767
 H        -4.552031         1.667917         1.152259
 H        -2.769783        -1.721695         1.026239
 H        -3.061114        -1.180067         2.818589
 H        -4.265225        -2.318270         2.081376
