19
Iteration:  2526
 C         0.230541        -1.427275        -0.207276
 C        -0.720500        -0.417036         0.055170
 C        -1.717092         0.194862         0.365632
 C        -2.757738         1.149589         0.287200
 O        -2.248754         2.492954         0.219971
 C        -3.953183         0.883390         1.206453
 C        -4.293700        -0.571839         1.220688
 C        -3.743438        -1.541613         2.216826
 O        -4.998957        -1.044971         0.258432
 H         0.790152        -1.470449         0.730981
 H        -0.271464        -2.360751        -0.244148
 H         0.904866        -1.321736        -1.001622
 H        -3.205411         0.973530        -0.646614
 H        -1.707685         2.556307         1.104164
 H        -3.846440         1.057968         2.265261
 H        -4.667184         1.658860         0.884652
 H        -4.510258        -2.361054         2.341570
 H        -2.906161        -1.946952         1.552386
 H        -3.432932        -1.004734         3.131416
