19
Iteration:  3297
 C         0.351216        -1.285263        -0.847694
 C        -0.378550        -0.367366        -0.025945
 C        -1.512482         0.146364         0.166317
 C        -2.743691         0.935972         0.264343
 O        -2.569977         2.413514         0.333539
 C        -3.495395         0.657199         1.511921
 C        -4.302072        -0.603810         1.330070
 C        -5.106301        -0.924952         2.543195
 O        -4.254345        -1.266707         0.384001
 H         0.178066        -2.254402        -0.314845
 H        -0.241696        -1.450227        -1.806680
 H         1.449668        -1.207278        -1.098199
 H        -3.453936         0.653198        -0.598300
 H        -1.957417         2.776656        -0.418338
 H        -2.898880         0.412305         2.412010
 H        -4.232346         1.540287         1.761670
 H        -4.516542        -1.646561         3.128708
 H        -5.171775        -0.057265         3.190096
 H        -5.961775        -1.637655         2.478830
