19
Iteration:  4865charge 0 multiplicity 1
 C         0.603873        -1.164838        -1.021483
 C        -0.402413        -0.343175        -0.390196
 C        -1.339231         0.289704        -0.034546
 C        -2.569560         0.859740         0.337006
 O        -2.531354         2.353460         0.356757
 C        -3.405774         0.472662         1.492352
 C        -4.387710        -0.678927         1.525625
 C        -5.534661        -0.648165         2.653043
 O        -4.433159        -1.482321         0.617635
 H         1.520612        -1.142388        -0.522762
 H         0.366251        -2.247507        -1.015529
 H         0.818329        -0.879367        -2.075606
 H        -3.321091         0.676478        -0.531692
 H        -1.532784         2.502415         0.375511
 H        -2.749955         0.345563         2.373490
 H        -4.018393         1.358354         1.876439
 H        -5.167748        -0.517036         3.721937
 H        -6.133305         0.273431         2.299527
 H        -6.172096        -1.592199         2.689501
