19
Iteration:  2395charge 0 multiplicity 1
 C         0.384698        -1.253600         0.262785
 C        -0.544850        -0.204685         0.067292
 C        -1.668227         0.267767        -0.169156
 C        -2.825716         1.027691         0.025340
 O        -2.429855         2.460647         0.159776
 C        -3.501336         0.640480         1.383085
 C        -4.315866        -0.659563         1.248451
 C        -3.973713        -1.863128         1.959937
 O        -5.264998        -0.672272         0.519393
 H         0.943714        -1.045038         1.218260
 H        -0.194327        -2.164355         0.374145
 H         1.158272        -1.463675        -0.478125
 H        -3.539070         1.033810        -0.804641
 H        -1.614505         2.403303         0.754944
 H        -2.713976         0.545066         2.152231
 H        -4.282069         1.411661         1.563065
 H        -2.978918        -1.868512         2.427799
 H        -4.612584        -2.047910         2.824507
 H        -3.999800        -2.671554         1.271726
