19
Iteration:  4266
 C         0.897509        -0.845128         0.136600
 C        -0.572823        -0.535495         0.122209
 C        -1.730367        -0.165373         0.028080
 C        -2.777982         0.789040        -0.007486
 O        -2.198630         2.204753        -0.114527
 C        -3.633434         0.767000         1.240222
 C        -4.522485        -0.471779         1.413414
 C        -3.999237        -1.921716         1.688673
 O        -5.696039        -0.309283         1.112762
 H         1.351144         0.004418        -0.383776
 H         1.267669        -0.907054         1.163305
 H         1.079932        -1.820551        -0.393208
 H        -3.273966         0.755966        -0.908134
 H        -1.340948         2.171180         0.213790
 H        -2.912366         1.026602         2.109313
 H        -4.332296         1.625825         1.208007
 H        -3.138164        -2.018090         1.036743
 H        -3.788699        -1.863241         2.711780
 H        -4.839198        -2.509677         1.340621
