19
Iteration:  4476
 C         0.239870        -1.553235         0.338129
 C        -0.904687        -0.588948         0.116143
 C        -1.770939         0.180690        -0.268753
 C        -2.934161         1.213556        -0.021888
 O        -2.295570         2.620823         0.151389
 C        -3.593713         0.795254         1.326859
 C        -4.248600        -0.576437         1.271946
 C        -3.502231        -1.684665         2.012255
 O        -5.311755        -0.796048         0.605685
 H         1.144450        -0.875017         0.354615
 H         0.344158        -2.086120         1.265431
 H         0.427103        -2.242174        -0.421033
 H        -3.508876         1.375260        -1.026136
 H        -1.740137         2.863437        -0.603128
 H        -2.769784         0.743147         2.126267
 H        -4.205630         1.692863         1.679216
 H        -2.497774        -1.941959         1.570185
 H        -3.106636        -1.413724         2.991604
 H        -4.098692        -2.549925         2.166564
