19
Iteration:  1469
 C         0.919063        -0.836226        -0.129069
 C        -0.512101        -0.251504         0.152880
 C        -1.660969         0.158110         0.128215
 C        -2.796102         1.043068         0.334388
 O        -2.453510         2.491654         0.364486
 C        -3.668668         0.465920         1.386413
 C        -4.427886        -0.744920         1.111491
 C        -5.105675        -1.557127         2.249677
 O        -4.443544        -1.116092        -0.051855
 H         1.471890        -0.471275        -0.992622
 H         1.469637        -0.508287         0.728123
 H         0.809191        -1.876792        -0.192568
 H        -3.392296         0.980977        -0.625097
 H        -2.171039         2.738882         1.322918
 H        -3.089685         0.172638         2.265442
 H        -4.455551         1.134524         1.693449
 H        -4.495484        -1.404154         3.126828
 H        -6.171060        -1.292893         2.311520
 H        -4.852459        -2.629381         2.047272
