19
Iteration:   152
 C         1.544221         0.056729         0.069164
 C         0.057009        -0.029066         0.072585
 C        -1.183810        -0.017485         0.079937
 C        -2.671645         0.019299        -0.066760
 O        -3.053057         1.363755        -0.302062
 C        -3.219094        -0.535203         1.309655
 C        -4.692366        -0.335725         1.446946
 C        -5.488846        -1.649814         1.584934
 O        -5.225187         0.766284         1.446345
 H         2.020850         0.392936         1.019322
 H         1.937734        -0.951606        -0.140019
 H         1.886085         0.812928        -0.638589
 H        -3.037936        -0.602131        -0.973111
 H        -2.226015         1.816701        -0.624466
 H        -2.905902        -1.623811         1.311621
 H        -2.757732         0.072296         2.102654
 H        -5.427225        -1.773403         2.722347
 H        -6.529314        -1.538300         1.256171
 H        -4.952870        -2.578926         1.236742
