19
Iteration:  3886
 C         0.515707        -1.437020         0.184859
 C        -0.630812        -0.547139         0.275334
 C        -1.598678         0.120158        -0.049912
 C        -2.763461         1.017196        -0.033748
 O        -2.439044         2.430532        -0.123513
 C        -3.603602         0.824885         1.356604
 C        -4.402124        -0.494063         1.350029
 C        -3.591019        -1.641100         1.745689
 O        -5.561724        -0.643384         0.935335
 H         0.805523        -1.860223        -0.768711
 H         1.388745        -0.982162         0.676464
 H         0.341277        -2.303570         0.843053
 H        -3.367591         0.788603        -1.018213
 H        -3.241274         2.868346        -0.257577
 H        -2.890958         0.864092         2.180811
 H        -4.068644         1.835452         1.364485
 H        -3.315222        -2.163904         0.871503
 H        -2.745450        -1.386810         2.353216
 H        -4.304894        -2.172419         2.344056
