19
Iteration:  3896charge 0 multiplicity 1
 C         0.570071        -1.446887         0.300136
 C        -0.612173        -0.524591         0.110742
 C        -1.613819         0.161984        -0.097983
 C        -2.778396         1.020432        -0.101575
 O        -2.444187         2.360104        -0.002466
 C        -3.596716         0.754035         1.257771
 C        -4.414440        -0.473827         1.341297
 C        -3.605291        -1.655883         1.801061
 O        -5.562328        -0.545575         0.969753
 H         0.877730        -1.752426        -0.670645
 H         1.393393        -0.871999         0.742642
 H         0.218065        -2.284045         0.931231
 H        -3.558633         0.765708        -0.952385
 H        -3.203553         2.844746        -0.321615
 H        -2.830901         0.719796         2.034850
 H        -4.342149         1.596401         1.353309
 H        -3.311447        -2.231367         0.902526
 H        -2.704978        -1.256037         2.251614
 H        -4.121546        -2.386798         2.440468
