19
Iteration:  4738
 C         0.532114        -1.141833        -0.498417
 C        -0.733809        -0.435806        -0.456577
 C        -1.766152         0.223730        -0.291479
 C        -2.836916         1.035098         0.178836
 O        -2.216445         2.350639         0.357926
 C        -3.395281         0.510803         1.524050
 C        -4.326943        -0.686620         1.459251
 C        -5.069765        -0.865307         2.655789
 O        -4.453438        -1.359277         0.477056
 H         1.218319        -0.555225         0.255239
 H         0.436495        -2.191542        -0.150088
 H         1.073882        -1.106949        -1.449727
 H        -3.691047         1.169305        -0.426964
 H        -1.447637         2.448537        -0.284554
 H        -2.605137         0.274277         2.271159
 H        -3.813841         1.370229         1.981611
 H        -4.307656        -1.088807         3.434000
 H        -5.506446         0.073520         3.076800
 H        -5.735687        -1.773042         2.581246
