19
Iteration:  3706
 C         0.388230        -1.201651         0.172636
 C        -0.795443        -0.472497        -0.193285
 C        -1.844947         0.100946        -0.398830
 C        -2.895532         1.022054        -0.051874
 O        -2.104247         2.303653         0.198634
 C        -3.587472         0.815952         1.342246
 C        -4.407111        -0.512621         1.341151
 C        -3.846565        -1.478214         2.394989
 O        -5.261672        -0.889865         0.589132
 H         0.570439        -2.099616        -0.486640
 H         1.351928        -0.680904         0.048784
 H         0.384099        -1.659896         1.205601
 H        -3.605717         1.305577        -0.892358
 H        -1.159833         2.045916        -0.054143
 H        -2.821320         0.819387         2.154539
 H        -4.272845         1.666199         1.543333
 H        -2.713023        -1.309868         2.541620
 H        -4.382173        -1.248225         3.395405
 H        -3.925767        -2.561141         2.158077
