19
Iteration:  4544
 C         0.159503        -1.503861         0.109213
 C        -0.722391        -0.523456        -0.286699
 C        -1.749482         0.159459        -0.248451
 C        -2.772588         1.172099         0.017087
 O        -2.451196         2.571041         0.136863
 C        -3.532420         0.811141         1.490551
 C        -4.301928        -0.562224         1.364211
 C        -3.920432        -1.639283         2.435306
 O        -4.890118        -0.857334         0.365390
 H         1.027505        -0.871715         0.446130
 H        -0.132888        -2.074035         0.999232
 H         0.587359        -2.197839        -0.624901
 H        -3.676977         0.972408        -0.638923
 H        -1.687159         2.678906         0.837472
 H        -2.942535         1.135834         2.388670
 H        -4.378539         1.615525         1.442868
 H        -2.868680        -1.761031         2.262508
 H        -4.004322        -1.229221         3.461217
 H        -4.665270        -2.461242         2.304778
