19
Iteration:  2112charge 0 multiplicity 1
 C         0.492558        -1.178702         0.392129
 C        -0.695594        -0.502159         0.171630
 C        -1.695996         0.198575         0.080845
 C        -2.757567         1.129664         0.108828
 O        -2.314620         2.463601         0.333561
 C        -3.809510         0.794601         1.243362
 C        -4.373173        -0.607085         1.067315
 C        -3.579854        -1.914704         1.612927
 O        -5.503990        -0.696390         0.528030
 H         1.326193        -0.472136         0.571771
 H         0.362074        -1.958784         1.134753
 H         0.809242        -1.580089        -0.575015
 H        -3.435556         0.950754        -0.740006
 H        -1.396204         2.366571         0.264671
 H        -3.255054         0.687537         2.174272
 H        -4.560961         1.576646         1.314753
 H        -2.441968        -1.794789         1.610212
 H        -3.844335        -1.975760         2.720480
 H        -3.740567        -2.916886         1.132314
