19
Iteration:  2438
 C         0.436713        -1.345434         0.157259
 C        -0.710485        -0.528135        -0.020445
 C        -1.646166         0.266092         0.050151
 C        -2.778019         1.159675         0.131327
 O        -2.445198         2.599986         0.192256
 C        -3.655772         0.749969         1.372176
 C        -4.330097        -0.659108         1.171926
 C        -3.834389        -1.734480         2.063620
 O        -5.242748        -0.831459         0.413499
 H         1.014784        -1.130761         1.047461
 H         0.121756        -2.359327         0.166117
 H         1.121247        -1.206605        -0.646368
 H        -3.343157         0.963065        -0.746787
 H        -1.444826         2.660795         0.420388
 H        -3.063304         0.707205         2.280395
 H        -4.451695         1.466602         1.415827
 H        -3.401341        -1.555488         3.053913
 H        -4.650480        -2.430628         2.156965
 H        -2.973574        -2.114315         1.554423
