19
Iteration:  2757
 C         0.297867        -1.585113        -0.310107
 C        -0.589500        -0.409083        -0.247775
 C        -1.426917         0.414533         0.119141
 C        -2.693309         1.170323         0.233392
 O        -2.429037         2.547822         0.071757
 C        -3.634076         0.823008         1.578453
 C        -4.334876        -0.606317         1.381253
 C        -4.373208        -1.665726         2.443056
 O        -4.864889        -0.959150         0.297250
 H         0.532263        -1.711077         0.758032
 H        -0.205722        -2.487066        -0.660341
 H         1.237701        -1.401557        -0.817974
 H        -3.328617         0.934454        -0.567740
 H        -1.868277         2.944860         0.847856
 H        -3.301536         1.029913         2.550334
 H        -4.485953         1.442523         1.214252
 H        -4.328530        -1.178218         3.420913
 H        -5.321932        -2.185056         2.102790
 H        -3.444567        -2.310344         2.378187
