19
Iteration:  3072charge 0 multiplicity 1
 C         0.681926        -1.081539        -0.739644
 C        -0.494252        -0.448204        -0.173892
 C        -1.589634         0.107888        -0.003769
 C        -2.772880         0.838305         0.273825
 O        -2.505073         2.303372         0.205577
 C        -3.389905         0.520043         1.612117
 C        -4.388459        -0.555117         1.456169
 C        -5.127066        -0.961374         2.682816
 O        -4.525748        -1.077773         0.277907
 H         1.040791        -1.964976        -0.212854
 H         0.289870        -1.406261        -1.702075
 H         1.494552        -0.397531        -0.863223
 H        -3.486220         0.631918        -0.579533
 H        -1.702149         2.426655         0.649785
 H        -2.443320         0.139972         2.148211
 H        -3.855256         1.383943         2.026308
 H        -4.848145        -0.321952         3.535408
 H        -6.243141        -0.896968         2.635548
 H        -5.050863        -2.070356         2.841554
