19
Iteration:  1734charge 0 multiplicity 1
 C         0.413966        -1.330447        -0.009549
 C        -0.648891        -0.297893         0.064024
 C        -1.661504         0.356306         0.221867
 C        -2.816282         1.232005         0.373837
 O        -2.524178         2.637268         0.439301
 C        -3.769803         0.676581         1.416438
 C        -4.251896        -0.686194         1.053796
 C        -4.457468        -1.790638         2.074790
 O        -4.478676        -1.030141        -0.069112
 H         1.243616        -1.105842        -0.637227
 H         0.981399        -1.393723         0.943674
 H         0.148366        -2.398156        -0.245977
 H        -3.496582         1.065138        -0.453110
 H        -1.573073         2.692984         0.804595
 H        -3.381352         0.491736         2.430980
 H        -4.526094         1.495482         1.388089
 H        -3.842195        -2.721642         1.823648
 H        -3.915277        -1.541671         3.013813
 H        -5.556707        -2.014443         2.165378
