19
Iteration:  2183
 C         0.767898        -1.130470         0.198985
 C        -0.413886        -0.312455         0.041809
 C        -1.562524         0.127567         0.182656
 C        -2.706805         1.063640         0.079388
 O        -2.141535         2.372644         0.369088
 C        -3.974833         0.695099         1.053248
 C        -4.640682        -0.668099         1.096793
 C        -3.809654        -1.731452         1.825644
 O        -5.745261        -0.770916         0.644599
 H         1.582826        -0.550050         0.534419
 H         0.519109        -2.051838         0.740206
 H         1.171251        -1.257446        -0.804425
 H        -2.919569         1.244014        -0.952758
 H        -1.540585         2.417346         1.064020
 H        -3.357515         0.686101         1.975113
 H        -4.765073         1.470307         1.077265
 H        -3.525246        -1.567736         2.866762
 H        -4.405337        -2.625886         1.689924
 H        -2.791853        -1.728294         1.368907
