19
Iteration:  1018
 C         1.490982         0.192959         0.380571
 C         0.033671         0.144040         0.180696
 C        -1.162304         0.007278         0.001024
 C        -2.581344         0.206313         0.060925
 O        -3.056590         1.532382         0.340021
 C        -3.288499        -1.067577         0.809442
 C        -4.692919        -0.479752         1.064940
 C        -5.029122        -0.398873         2.574116
 O        -5.534418        -0.460980         0.183615
 H         2.050517         1.003020        -0.181655
 H         1.659143         0.229005         1.469832
 H         1.952673        -0.761305         0.058838
 H        -2.915332         0.017149        -0.994352
 H        -3.568078         1.653608        -0.455817
 H        -3.333541        -1.903981         0.111827
 H        -2.625583        -1.216249         1.685376
 H        -4.368931         0.193544         3.159113
 H        -6.081043        -0.022898         2.504747
 H        -4.861821        -1.416966         2.911772
