19
Iteration:  2880charge 0 multiplicity 1
 C         0.576541        -1.083244        -0.295874
 C        -0.583987        -0.194059        -0.440709
 C        -1.755008        -0.042863        -0.158566
 C        -2.828947         0.924061         0.227335
 O        -2.157086         2.202728         0.218781
 C        -3.590023         0.656944         1.527297
 C        -4.359732        -0.629666         1.422682
 C        -4.703019        -1.333951         2.742630
 O        -4.827290        -0.837842         0.238953
 H         0.746229        -1.665402         0.582616
 H         0.524487        -1.825271        -1.096243
 H         1.461458        -0.462669        -0.528631
 H        -3.563293         0.961787        -0.509935
 H        -1.260114         1.943013         0.634145
 H        -2.971415         0.636056         2.383866
 H        -4.308374         1.515753         1.448846
 H        -5.131485        -0.417081         3.269950
 H        -5.372415        -2.212991         2.585489
 H        -3.713094        -1.696603         3.104734
