19
Iteration:  4555
 C         0.275090        -1.507239         0.027314
 C        -0.794254        -0.564299        -0.357724
 C        -1.725404         0.203995        -0.114902
 C        -2.805988         1.079135         0.171655
 O        -2.460158         2.546806         0.096778
 C        -3.577802         0.843909         1.488959
 C        -4.250059        -0.522515         1.351413
 C        -3.980124        -1.510094         2.458145
 O        -4.850632        -0.895859         0.300268
 H         1.210329        -1.096063         0.449950
 H        -0.191996        -2.147213         0.780721
 H         0.533231        -2.169713        -0.797034
 H        -3.509372         0.999764        -0.708599
 H        -2.093056         2.821632         0.986315
 H        -2.912308         0.842806         2.391536
 H        -4.342751         1.696108         1.564457
 H        -2.978722        -1.897454         2.452496
 H        -4.176573        -1.096953         3.460748
 H        -4.540765        -2.448164         2.256784
