19
Iteration:  2130
 C         0.624858        -1.131703         0.334421
 C        -0.725841        -0.539814         0.155570
 C        -1.731389         0.134416         0.076716
 C        -2.788816         1.116508         0.011574
 O        -2.286810         2.448547         0.435351
 C        -3.736455         0.723162         1.133061
 C        -4.381604        -0.642364         1.099211
 C        -3.687000        -1.784815         1.663119
 O        -5.528523        -0.734442         0.605216
 H         1.308004        -0.312413         0.743673
 H         0.581820        -1.896337         1.163555
 H         1.097376        -1.574330        -0.572228
 H        -3.240638         1.373219        -1.015968
 H        -1.388975         2.483310         0.595107
 H        -3.267209         0.992215         2.126081
 H        -4.596690         1.417244         1.031299
 H        -2.690365        -1.540452         1.809053
 H        -4.266354        -2.167976         2.443060
 H        -3.681400        -2.514612         0.866934
