19
Iteration:  2722charge 0 multiplicity 1
 C         0.185681        -1.547937        -0.180711
 C        -0.779986        -0.499417        -0.090184
 C        -1.672438         0.335750         0.094949
 C        -2.750840         1.216391         0.141975
 O        -2.483940         2.635292         0.133460
 C        -3.478269         0.678644         1.530351
 C        -4.227508        -0.592239         1.351673
 C        -4.228014        -1.656403         2.419682
 O        -4.720289        -0.860264         0.173625
 H         0.627461        -1.721944         0.871076
 H        -0.139977        -2.558911        -0.516238
 H         1.072611        -1.272270        -0.795094
 H        -3.474838         1.011508        -0.658614
 H        -1.464397         2.690673         0.291861
 H        -2.913496         0.928345         2.451051
 H        -4.303624         1.397346         1.622877
 H        -3.887809        -1.361284         3.383930
 H        -5.270785        -1.936700         2.722877
 H        -3.832381        -2.591763         1.997518
