19
Iteration:   922
 C         1.403833         0.212701         0.373768
 C        -0.028104         0.051187        -0.022058
 C        -1.229772         0.045319         0.007359
 C        -2.566153         0.264718        -0.063781
 O        -2.693783         1.541900         0.592904
 C        -3.209539        -0.992999         0.770255
 C        -4.787460        -0.706815         1.086619
 C        -5.119263        -0.160679         2.468733
 O        -5.602590        -0.717841         0.191655
 H         1.647899         1.216990        -0.062153
 H         1.586994         0.179220         1.425558
 H         2.085684        -0.444316        -0.095842
 H        -3.169861         0.508447        -0.963745
 H        -3.333994         1.567080         1.245350
 H        -3.384369        -1.865582         0.079409
 H        -2.746524        -1.245158         1.700934
 H        -5.132440         1.009027         2.267417
 H        -6.254298        -0.215572         2.606224
 H        -4.410613        -0.308422         3.296804
