19
Iteration:   795
 C         1.367314        -0.272919        -0.249014
 C         0.040220         0.023628         0.032793
 C        -1.111044         0.336822         0.161047
 C        -2.560220         0.442842         0.305236
 O        -2.964150         1.718034         0.959725
 C        -3.142923        -0.605838         1.157042
 C        -4.655155        -0.680677         0.977193
 C        -5.477715        -0.019513         2.137023
 O        -5.279691        -1.270497         0.069110
 H         1.780757         0.751195        -0.358232
 H         2.042111        -0.687445         0.534330
 H         1.424378        -0.849695        -1.201068
 H        -3.003857         0.542592        -0.730647
 H        -3.507616         2.131994         0.344654
 H        -2.677732        -1.577808         0.814894
 H        -2.942889        -0.382069         2.191732
 H        -5.083677         0.979386         2.336126
 H        -6.535665         0.003823         1.885148
 H        -5.404659        -0.621662         2.992055
