19
Iteration:  3546
 C         0.250019        -1.661125        -0.362866
 C        -0.595792        -0.464595        -0.028548
 C        -1.287182         0.468787         0.309964
 C        -2.623703         1.184275         0.175127
 O        -2.610252         2.618529         0.016312
 C        -3.549076         0.687549         1.366224
 C        -4.224660        -0.720583         1.248640
 C        -4.339450        -1.441294         2.592859
 O        -4.967401        -0.965614         0.376247
 H        -0.270610        -2.540707        -0.532414
 H         0.883066        -1.409977        -1.193544
 H         0.915277        -1.688424         0.510541
 H        -2.998299         0.789961        -0.812506
 H        -2.236711         2.827944        -0.908471
 H        -3.143729         0.882073         2.384110
 H        -4.490726         1.233387         1.383405
 H        -3.496056        -1.963119         3.028168
 H        -4.661177        -0.845234         3.385577
 H        -5.090347        -2.171332         2.368466
