19
Iteration:  4446charge 0 multiplicity 1
 C         0.227368        -1.533553         0.292606
 C        -0.774584        -0.579066        -0.149466
 C        -1.662177         0.166065         0.104148
 C        -2.791555         1.016065         0.124716
 O        -2.426113         2.455998         0.137098
 C        -3.779496         0.883564         1.270151
 C        -4.266066        -0.458959         1.271938
 C        -3.429393        -1.639911         1.836548
 O        -5.273554        -0.670423         0.722242
 H         1.261926        -0.979702         0.338883
 H         0.054614        -1.820661         1.370093
 H         0.379675        -2.444157        -0.348821
 H        -3.303737         0.770485        -0.792230
 H        -2.037059         2.763860        -0.757541
 H        -3.310490         1.295781         2.201153
 H        -4.585068         1.601603         0.894018
 H        -2.548481        -1.740879         1.156314
 H        -3.089806        -1.657079         2.925544
 H        -4.210313        -2.411403         1.779423
