19
Iteration:  2208charge 0 multiplicity 1
 C         0.814421        -1.117905         0.075479
 C        -0.418418        -0.376551         0.152668
 C        -1.491298         0.107802         0.249191
 C        -2.661697         0.982334         0.160390
 O        -2.306024         2.346724         0.313573
 C        -3.860744         0.781164         1.096309
 C        -4.543469        -0.603421         1.066795
 C        -3.898365        -1.723448         1.765818
 O        -5.733960        -0.772549         0.670359
 H         1.761179        -0.584451         0.412464
 H         0.598824        -2.129240         0.450825
 H         1.105978        -1.076021        -0.995602
 H        -2.895080         0.996530        -0.943140
 H        -1.853139         2.538694         1.195921
 H        -3.529584         1.173502         2.113747
 H        -4.625316         1.414973         0.623085
 H        -4.433256        -1.727901         2.700983
 H        -4.168203        -2.644746         1.337797
 H        -2.909230        -1.560682         2.085513
