19
Iteration:  4837
 C         0.655218        -1.151655        -0.864190
 C        -0.595314        -0.436156        -0.384701
 C        -1.603936         0.152434        -0.106994
 C        -2.772402         0.974321         0.319711
 O        -2.545977         2.389841         0.396946
 C        -3.250619         0.425623         1.574077
 C        -4.349806        -0.639054         1.406339
 C        -5.295431        -0.577820         2.544840
 O        -4.406745        -1.526388         0.554651
 H         1.530640        -0.782896        -0.161567
 H         0.605622        -2.246516        -0.777482
 H         1.007596        -0.851616        -1.845498
 H        -3.555687         0.902563        -0.391369
 H        -1.524564         2.527140         0.509696
 H        -2.426774        -0.091449         2.155725
 H        -3.573558         1.132146         2.289317
 H        -4.806549        -0.216088         3.441049
 H        -5.784214         0.368659         2.321345
 H        -5.942923        -1.373798         2.877953
