19
Iteration:  4242charge 0 multiplicity 1
 C         0.814243        -0.726595         0.213511
 C        -0.666154        -0.684138         0.172648
 C        -1.671018        -0.010667        -0.032733
 C        -2.757823         0.956415         0.024101
 O        -2.100330         2.184317        -0.351129
 C        -3.488252         0.753666         1.397262
 C        -4.475347        -0.603382         1.336655
 C        -4.111935        -2.028011         1.682303
 O        -5.733148        -0.322147         1.159570
 H         0.955995         0.095872        -0.395676
 H         1.265913        -0.550185         1.194550
 H         1.204373        -1.637993        -0.311211
 H        -3.403463         0.939799        -0.718572
 H        -1.234165         2.201831         0.164851
 H        -2.928548         0.537736         2.321363
 H        -4.166009         1.612442         1.691327
 H        -3.304327        -2.303359         1.036104
 H        -4.040421        -2.010823         2.776192
 H        -5.039434        -2.376826         1.302205
