19
Iteration:    55charge 0 multiplicity 1
 C         1.505767         0.250081         0.065293
 C         0.027036        -0.044385         0.084582
 C        -1.177386        -0.182761        -0.027108
 C        -2.669366        -0.197505         0.008845
 O        -3.069724         1.030762        -0.598363
 C        -3.149272        -0.465187         1.478168
 C        -4.659378        -0.240141         1.648323
 C        -5.446871        -1.372256         1.148984
 O        -5.177697         0.842626         1.874331
 H         1.850541         0.478528         1.069230
 H         2.115280        -0.548868        -0.359687
 H         1.711942         1.122253        -0.558726
 H        -2.972231        -1.024112        -0.601080
 H        -3.899342         1.407657        -0.198536
 H        -2.847929        -1.500972         1.780301
 H        -2.543143         0.186787         2.113671
 H        -5.111341        -2.275636         1.632599
 H        -6.526152        -1.311826         1.303913
 H        -5.272769        -1.282480         0.065679
