19
Iteration:  4626charge 0 multiplicity 1
 C         0.238461        -1.373117        -0.623867
 C        -0.607901        -0.541593         0.127189
 C        -1.469507         0.280514         0.298804
 C        -2.776201         1.021062         0.193317
 O        -2.376180         2.486932         0.072158
 C        -3.742085         0.871879         1.331543
 C        -4.299918        -0.547431         1.379994
 C        -4.464461        -1.360083         2.629954
 O        -4.647786        -1.125768         0.319251
 H         1.360751        -1.264081        -0.639317
 H         0.057740        -2.459654        -0.361580
 H        -0.095638        -1.221922        -1.710411
 H        -3.333436         0.642783        -0.617453
 H        -1.373874         2.498918         0.185799
 H        -3.254608         0.997647         2.296651
 H        -4.457026         1.645649         1.168423
 H        -3.460453        -1.563340         3.147670
 H        -5.082862        -0.701517         3.261390
 H        -4.780647        -2.382413         2.476997
