19
Iteration:  4377
 C         0.443458        -1.407173        -0.088692
 C        -0.575348        -0.496212         0.484139
 C        -1.491972         0.295298         0.292299
 C        -2.673584         0.969294        -0.089440
 O        -2.432269         2.457722        -0.025831
 C        -3.633949         0.768464         1.049455
 C        -4.397742        -0.588926         1.266813
 C        -3.736418        -1.766599         1.891067
 O        -5.652764        -0.559907         0.933946
 H         1.387832        -0.865157        -0.451163
 H         0.882735        -2.172509         0.565616
 H         0.038108        -1.906468        -0.960240
 H        -2.959976         0.753481        -1.067725
 H        -1.419980         2.613730        -0.060661
 H        -3.197036         1.025270         2.092216
 H        -4.433766         1.527578         0.917289
 H        -2.807650        -2.128803         1.379351
 H        -3.243536        -1.680535         2.857216
 H        -4.408157        -2.616389         2.065335
