19
Iteration:  3059
 C         0.668964        -1.092665        -0.810954
 C        -0.518046        -0.607503        -0.081476
 C        -1.496264         0.158256         0.067614
 C        -2.753778         0.967817         0.258145
 O        -2.581634         2.360234         0.124755
 C        -3.315003         0.492744         1.665277
 C        -4.464675        -0.519368         1.396529
 C        -5.164078        -1.012012         2.654332
 O        -4.527734        -1.108377         0.308828
 H         1.103539        -1.874676        -0.190197
 H         0.585540        -1.433853        -1.857875
 H         1.420443        -0.327864        -0.891984
 H        -3.502385         0.684122        -0.424221
 H        -1.644086         2.594617         0.514872
 H        -2.708584        -0.155456         2.349272
 H        -3.529986         1.324985         2.331246
 H        -4.703911        -0.395740         3.485926
 H        -6.269082        -0.845104         2.648493
 H        -4.754112        -2.073328         2.807062
