19
Iteration:  2615charge 0 multiplicity 1
 C         0.130254        -1.548104        -0.032249
 C        -0.734753        -0.384133        -0.129975
 C        -1.722902         0.321733        -0.036550
 C        -2.791243         1.290032         0.102938
 O        -2.257435         2.606066         0.361791
 C        -3.772572         0.743422         1.288598
 C        -4.252335        -0.676318         1.227339
 C        -3.964171        -1.580487         2.377044
 O        -4.836458        -1.049545         0.275302
 H         0.629811        -1.615509         0.917419
 H        -0.372430        -2.473382        -0.236738
 H         0.891848        -1.466995        -0.776573
 H        -3.423054         1.400352        -0.752824
 H        -1.522370         2.528603         1.075300
 H        -3.312672         1.047524         2.195905
 H        -4.650600         1.387135         0.997339
 H        -3.290813        -2.413530         2.143986
 H        -3.557558        -1.067196         3.315978
 H        -4.867736        -2.030394         2.860689
