19
Iteration:  4018charge 0 multiplicity 1
 C         0.811133        -1.154991         0.260599
 C        -0.604006        -0.626182         0.136871
 C        -1.697281        -0.058996         0.086734
 C        -2.861985         0.880408         0.015306
 O        -2.335099         2.240681        -0.152773
 C        -3.658363         0.871231         1.277957
 C        -4.466424        -0.417127         1.383089
 C        -3.707796        -1.754356         1.526700
 O        -5.602121        -0.432828         1.143270
 H         1.397010        -1.091424        -0.694682
 H         1.218176        -0.506767         1.033773
 H         0.714043        -2.167552         0.615632
 H        -3.505270         0.680672        -0.959038
 H        -3.038328         2.837426        -0.203666
 H        -3.031527         1.131817         2.131711
 H        -4.399914         1.672031         1.141471
 H        -3.006325        -1.709754         0.625966
 H        -3.006869        -1.919107         2.397474
 H        -4.428686        -2.542102         1.351607
