19
Iteration:  2026charge 0 multiplicity 1
 C         0.321262        -1.519666         0.300857
 C        -0.593108        -0.509764         0.356547
 C        -1.361802         0.454380         0.213870
 C        -2.733297         1.186877         0.193825
 O        -2.796924         2.644581         0.222132
 C        -3.560891         0.759100         1.388456
 C        -4.318933        -0.629705         1.035601
 C        -3.724243        -1.965982         1.660402
 O        -5.270066        -0.742713         0.318001
 H         1.276565        -0.985777         0.354096
 H         0.278448        -2.211782         1.136748
 H         0.372150        -2.077167        -0.641855
 H        -3.193007         0.963467        -0.791772
 H        -2.018048         3.086867        -0.144023
 H        -3.115124         0.988802         2.357643
 H        -4.533822         1.268432         1.369171
 H        -3.627154        -2.808976         0.876009
 H        -2.623933        -1.680356         1.978388
 H        -4.390483        -2.070695         2.585805
