19
Iteration:  2471
 C         0.415682        -1.350315        -0.034407
 C        -0.800030        -0.686265         0.147335
 C        -1.642935         0.222363         0.166580
 C        -2.759982         1.098524         0.183262
 O        -2.471717         2.575312         0.248817
 C        -3.759958         0.928731         1.327685
 C        -4.284389        -0.661762         1.139260
 C        -3.720230        -1.652907         2.117956
 O        -5.184587        -0.856830         0.314189
 H         1.054358        -1.274884         0.835145
 H         0.236770        -2.380970        -0.167975
 H         0.920124        -1.091651        -0.921456
 H        -3.302732         0.958894        -0.710343
 H        -1.535143         2.530929         0.584449
 H        -3.391243         1.252304         2.296033
 H        -4.537201         1.603447         1.023235
 H        -4.266296        -1.516116         3.071638
 H        -3.673524        -2.688029         1.765681
 H        -2.677264        -1.477352         2.154803
