19
Iteration:  1074charge 0 multiplicity 1
 C         1.587667        -0.001097         0.245203
 C         0.061748         0.120503         0.323155
 C        -1.103115         0.319111         0.015044
 C        -2.566453         0.152220        -0.024220
 O        -3.188708         1.561659         0.245752
 C        -3.184204        -0.890241         0.939190
 C        -4.688118        -0.576070         1.140672
 C        -5.243008        -0.576553         2.516288
 O        -5.443199        -0.377051         0.229582
 H         2.083831         0.725415        -0.486885
 H         2.001819         0.208821         1.237003
 H         1.803842        -1.020018        -0.050024
 H        -2.856277        -0.057216        -1.082785
 H        -3.879066         1.507640        -0.385715
 H        -3.137398        -1.941324         0.550818
 H        -2.501999        -0.843624         1.777737
 H        -4.562557        -0.153575         3.294063
 H        -6.257197        -0.140791         2.486287
 H        -5.258497        -1.633919         2.699471
