19
Iteration:  4415charge 0 multiplicity 1
 C         0.462774        -1.651804         0.106500
 C        -0.595241        -0.552362         0.105616
 C        -1.519035         0.237349         0.187436
 C        -2.749131         1.064373         0.149482
 O        -2.464392         2.510529        -0.012215
 C        -3.804385         0.904376         1.336262
 C        -4.408768        -0.486099         1.258433
 C        -3.478859        -1.568661         1.787613
 O        -5.561538        -0.756203         0.785864
 H         1.488673        -1.291904         0.001505
 H         0.327099        -2.138518         1.101432
 H         0.265832        -2.398539        -0.718626
 H        -3.348024         0.658033        -0.670528
 H        -1.706779         2.572995        -0.567363
 H        -3.339063         1.089018         2.266100
 H        -4.516279         1.668648         1.027695
 H        -2.751110        -1.610760         0.989283
 H        -3.144685        -1.271672         2.803300
 H        -4.052453        -2.511219         1.741006
