19
Iteration:  2746charge 0 multiplicity 1
 C         0.276850        -1.596671        -0.203436
 C        -0.677033        -0.409365        -0.302661
 C        -1.431482         0.427966         0.104714
 C        -2.731728         1.186525         0.303401
 O        -2.419163         2.589100         0.040529
 C        -3.675817         0.877113         1.547790
 C        -4.197914        -0.681184         1.325944
 C        -4.351992        -1.701575         2.419403
 O        -4.846909        -0.924988         0.296162
 H         0.676752        -1.920159         0.773404
 H        -0.164585        -2.470068        -0.679991
 H         1.123728        -1.437715        -0.860349
 H        -3.291442         0.865557        -0.515030
 H        -1.706907         2.748360         0.727712
 H        -3.143663         1.106009         2.427084
 H        -4.569042         1.569940         1.657315
 H        -4.370065        -1.288957         3.436174
 H        -5.401991        -2.193469         2.458369
 H        -3.691871        -2.636000         2.341494
