19
Iteration:  4578charge 0 multiplicity 1
 C         0.329469        -1.546108        -0.242878
 C        -0.831343        -0.619391        -0.133357
 C        -1.646768         0.249064         0.117900
 C        -2.863029         1.118975         0.145635
 O        -2.465989         2.532413         0.049604
 C        -3.595158         0.792423         1.507799
 C        -4.218032        -0.597336         1.271284
 C        -4.102884        -1.403156         2.547873
 O        -4.779232        -0.890630         0.256922
 H         1.222438        -1.003785         0.095881
 H         0.291907        -2.431146         0.427395
 H         0.574514        -1.899087        -1.297194
 H        -3.466609         0.924637        -0.789355
 H        -2.125594         2.879317         0.914395
 H        -2.928464         0.959245         2.376430
 H        -4.571179         1.423517         1.661592
 H        -3.118188        -1.695400         2.847360
 H        -4.519586        -0.748198         3.345744
 H        -4.577374        -2.420193         2.435123
