19
Iteration:  1474charge 0 multiplicity 1
 C         0.901779        -0.813303        -0.142766
 C        -0.489514        -0.275479         0.130488
 C        -1.671809         0.127773         0.181155
 C        -2.788344         1.096064         0.291938
 O        -2.444311         2.468392         0.360160
 C        -3.700150         0.502409         1.411671
 C        -4.402721        -0.754150         1.126391
 C        -5.105835        -1.616552         2.241959
 O        -4.447925        -1.112003        -0.053697
 H         1.495045        -0.448606        -1.011951
 H         1.503124        -0.501974         0.777673
 H         0.777122        -1.975356        -0.166659
 H        -3.297909         1.185625        -0.689361
 H        -2.138879         2.639248         1.245587
 H        -3.131719         0.373670         2.375120
 H        -4.519759         1.247742         1.682271
 H        -4.622509        -1.299178         3.212048
 H        -6.157548        -1.326311         2.263833
 H        -4.809585        -2.620449         2.013100
