19
Iteration:  4088charge 0 multiplicity 1
 C         0.728416        -1.332932        -0.008682
 C        -0.202238        -0.276559         0.500969
 C        -1.285817         0.290545         0.319810
 C        -2.665743         0.790034         0.076709
 O        -2.636979         2.180460        -0.350159
 C        -3.603899         0.739874         1.246741
 C        -4.502614        -0.488234         1.407742
 C        -3.935153        -1.872053         1.560680
 O        -5.753695        -0.275944         1.111442
 H         1.072088        -1.215121        -1.031019
 H         1.635866        -1.488513         0.608400
 H         0.189674        -2.304780         0.003060
 H        -2.953300         0.237799        -0.940864
 H        -3.532507         2.322730        -0.559136
 H        -3.046973         0.927551         2.190020
 H        -4.321844         1.577704         1.168562
 H        -3.260901        -1.941513         0.776026
 H        -3.478062        -2.016652         2.501764
 H        -4.745762        -2.567299         1.396227
