19
Iteration:   685
 C         1.316471        -0.346785        -0.578928
 C        -0.077470        -0.149244        -0.152302
 C        -1.179632         0.282660         0.214583
 C        -2.599673         0.646567         0.467578
 O        -2.690705         2.045415         0.902572
 C        -3.298839        -0.365974         1.505526
 C        -4.697055        -0.712838         1.096227
 C        -6.001468        -0.346181         1.963294
 O        -4.746705        -1.382798         0.086904
 H         1.945850         0.568128        -0.387457
 H         1.762230        -1.186965         0.004875
 H         1.327235        -0.667019        -1.631769
 H        -3.224499         0.515762        -0.436329
 H        -2.054048         1.982035         1.598223
 H        -2.783220        -1.380846         1.559099
 H        -3.246115         0.205389         2.428637
 H        -5.789099         0.780772         2.054405
 H        -6.864068        -0.556378         1.329538
 H        -5.889932        -0.809075         2.978199
