19
Iteration:  3134
 C         0.755009        -0.989074        -0.582246
 C        -0.635325        -0.529405        -0.511177
 C        -1.551175         0.252330        -0.246270
 C        -2.693994         1.053095         0.106200
 O        -2.096983         2.436188         0.470525
 C        -3.534382         0.564127         1.356157
 C        -4.642924        -0.616423         1.450845
 C        -5.230919        -0.999926         2.820680
 O        -4.668698        -1.483414         0.500789
 H         0.850832        -1.768038         0.243360
 H         0.968797        -1.615160        -1.493063
 H         1.520226        -0.189955        -0.478945
 H        -3.286143         1.132416        -0.761757
 H        -1.184347         2.328261         0.513119
 H        -2.739765         0.337694         1.998521
 H        -3.979487         1.424264         1.957803
 H        -4.433826        -0.740960         3.513774
 H        -6.270929        -0.700379         2.969674
 H        -5.054659        -2.103289         2.774482
