19
Iteration:  3660charge 0 multiplicity 1
 C         0.427110        -1.122453         0.029329
 C        -0.945342        -0.699594        -0.146725
 C        -1.970291        -0.034500        -0.322175
 C        -2.808222         1.129954         0.128127
 O        -2.104006         2.323635         0.067593
 C        -3.696207         0.891617         1.382627
 C        -4.301580        -0.556064         1.370226
 C        -3.917806        -1.536951         2.507183
 O        -5.013330        -0.827342         0.417986
 H         0.727383        -2.065083        -0.549185
 H         1.190952        -0.424169        -0.340379
 H         0.730193        -1.335849         1.028444
 H        -3.680082         1.128297        -0.696944
 H        -1.620135         2.448051         0.982346
 H        -3.115734         1.059956         2.283050
 H        -4.483258         1.638358         1.427529
 H        -2.818252        -1.656674         2.586645
 H        -4.384921        -0.888193         3.361700
 H        -4.403008        -2.530339         2.257677
