19
Iteration:   296charge 0 multiplicity 1
 C         1.370563        -0.481184        -0.026798
 C        -0.010105        -0.264915         0.149029
 C        -1.118978         0.204627         0.021907
 C        -2.558599         0.513692         0.088643
 O        -2.958037         1.906500        -0.043769
 C        -3.255683        -0.104553         1.497454
 C        -4.668337        -0.521127         1.315551
 C        -5.180305        -1.754915         1.868190
 O        -5.505853         0.147548         0.747117
 H         1.883080         0.072121         0.754850
 H         1.685261        -1.527841        -0.006122
 H         1.640888         0.137639        -0.921687
 H        -3.098862        -0.008421        -0.714648
 H        -2.148753         2.289444         0.184071
 H        -2.692517        -0.916585         1.708027
 H        -3.097837         0.709912         2.267793
 H        -4.667317        -2.130145         2.743126
 H        -6.269433        -1.726445         2.110655
 H        -5.057478        -2.654466         1.170591
