19
Iteration:  2911charge 0 multiplicity 1
 C         0.709085        -1.076065        -0.367332
 C        -0.665321        -0.546076        -0.273459
 C        -1.701664         0.069527        -0.221717
 C        -2.816403         1.002422         0.168106
 O        -2.309984         2.368230         0.328336
 C        -3.378483         0.549515         1.455510
 C        -4.433871        -0.543680         1.354713
 C        -4.798083        -1.202191         2.669092
 O        -4.857196        -1.003535         0.322940
 H         1.266941        -1.616102         0.459018
 H         0.778194        -1.703333        -1.317181
 H         1.305475        -0.126474        -0.650451
 H        -3.648637         1.027168        -0.544869
 H        -1.403218         2.229941         0.525749
 H        -2.640081         0.173897         2.167271
 H        -3.690602         1.510004         2.013282
 H        -5.100548        -0.484391         3.452595
 H        -5.606462        -1.974666         2.597834
 H        -3.847208        -1.734876         2.957878
