19
Iteration:  2448
 C         0.485841        -1.385481         0.122831
 C        -0.811556        -0.620830        -0.027112
 C        -1.613627         0.249927         0.165990
 C        -2.768142         1.221793         0.125687
 O        -2.472748         2.598343         0.200028
 C        -3.746960         0.726526         1.319494
 C        -4.308554        -0.606318         1.225427
 C        -3.764165        -1.673045         2.070617
 O        -5.217754        -0.854147         0.386916
 H         1.027108        -1.101390         0.993741
 H         0.490567        -2.428585         0.025338
 H         0.987483        -1.118834        -0.759193
 H        -3.261926         1.194357        -0.782787
 H        -1.474647         2.652376         0.410226
 H        -3.042989         0.781524         2.147121
 H        -4.451485         1.453737         1.557859
 H        -3.853575        -1.419759         3.152287
 H        -4.403979        -2.502268         1.769860
 H        -2.939952        -2.171990         1.569889
