19
Iteration:  3992
 C         0.610801        -1.064981         0.325575
 C        -0.679415        -0.475568         0.234914
 C        -1.722224        -0.030947        -0.210668
 C        -2.850224         0.899211        -0.111203
 O        -2.178286         2.276612        -0.012729
 C        -3.611049         0.708862         1.160967
 C        -4.383056        -0.520059         1.289803
 C        -3.711618        -1.832249         1.640729
 O        -5.644417        -0.412139         1.228899
 H         1.072063        -1.055760        -0.651746
 H         1.210489        -0.433699         1.057054
 H         0.452823        -2.148931         0.765512
 H        -3.351608         0.915301        -1.014763
 H        -2.674717         2.900858        -0.486646
 H        -2.860822         0.749411         1.979886
 H        -4.213684         1.644424         1.182267
 H        -3.024645        -2.340794         0.794326
 H        -3.070940        -1.514989         2.513547
 H        -4.513276        -2.565404         1.974302
