19
Iteration:  3500
 C         0.375745        -1.494599        -0.166773
 C        -0.710381        -0.482557        -0.063596
 C        -1.687686         0.199019        -0.180768
 C        -2.864542         1.063369         0.062563
 O        -2.527544         2.489183         0.278653
 C        -3.441127         0.741325         1.391292
 C        -4.284893        -0.474356         1.378897
 C        -4.382848        -1.361107         2.575328
 O        -4.657749        -0.950453         0.263271
 H        -0.264499        -2.357750        -0.280956
 H         0.842469        -1.357630        -1.127946
 H         1.104701        -1.574001         0.657204
 H        -3.640983         0.944568        -0.703991
 H        -1.695568         2.560758        -0.319256
 H        -2.712112         0.347903         2.152052
 H        -3.894097         1.655461         1.849752
 H        -3.420489        -1.410412         3.041860
 H        -5.023611        -1.187289         3.392113
 H        -4.655069        -2.339926         2.209522
