19
Iteration:  2570charge 0 multiplicity 1
 C         0.284206        -1.494101        -0.202303
 C        -0.849755        -0.676796         0.130579
 C        -1.607572         0.251980         0.072934
 C        -2.719885         1.163294         0.162491
 O        -2.422907         2.654929         0.426147
 C        -3.802884         0.837849         1.199610
 C        -4.306607        -0.608637         1.171380
 C        -3.834640        -1.427914         2.306505
 O        -4.957078        -1.070214         0.243933
 H         0.952237        -1.681619         0.631834
 H        -0.077991        -2.466440        -0.410616
 H         0.853093        -1.181062        -1.037881
 H        -3.112438         1.269426        -0.798786
 H        -1.717917         2.737478         1.181443
 H        -3.461425         1.210737         2.130314
 H        -4.773429         1.406076         1.054494
 H        -3.732985        -2.498317         1.988689
 H        -2.766339        -1.089167         2.635634
 H        -4.321487        -1.422535         3.316861
