19
Iteration:  4615charge 0 multiplicity 1
 C         0.289758        -1.447374        -0.618824
 C        -0.652263        -0.600324         0.275613
 C        -1.537397         0.269281         0.208226
 C        -2.749526         1.067845         0.094785
 O        -2.440263         2.541524         0.060544
 C        -3.701434         0.860092         1.429324
 C        -4.290660        -0.552336         1.359443
 C        -4.371477        -1.362100         2.586381
 O        -4.679038        -1.097372         0.329355
 H         1.368414        -1.125900        -0.530169
 H         0.172046        -2.557504        -0.429911
 H        -0.090822        -1.270938        -1.681840
 H        -3.265291         0.748731        -0.772269
 H        -1.455317         2.481740         0.387338
 H        -3.178431         1.148723         2.337544
 H        -4.514935         1.547438         1.326835
 H        -3.326253        -1.464487         3.040463
 H        -5.037022        -1.040744         3.412394
 H        -4.873410        -2.208273         2.165413
