19
Iteration:   492charge 0 multiplicity 1
 C         1.155442        -0.684600        -0.364044
 C        -0.125319        -0.133800        -0.058976
 C        -1.205915         0.409486         0.058435
 C        -2.560590         0.785497         0.378492
 O        -2.598323         2.149326         0.740655
 C        -3.268319        -0.068654         1.533920
 C        -4.705805        -0.658599         1.081777
 C        -5.583093        -1.105703         2.233554
 O        -4.992038        -0.961698        -0.035551
 H         1.805551        -0.010522         0.193757
 H         1.381658        -1.742929        -0.100547
 H         1.282126        -0.561846        -1.480121
 H        -3.231422         0.558738        -0.481439
 H        -2.869211         2.657896        -0.108159
 H        -2.922000        -1.087467         1.838983
 H        -3.546683         0.590150         2.414916
 H        -5.717570        -0.304129         2.924769
 H        -6.483187        -1.581213         1.826116
 H        -4.995402        -1.864615         2.846052
