19
Iteration:  1902
 C         0.498176        -1.143915         0.121530
 C        -0.829332        -0.572976         0.146322
 C        -1.763469         0.183498         0.205754
 C        -2.868902         1.283482         0.236060
 O        -2.241139         2.470069         0.615334
 C        -3.951826         0.753612         1.235153
 C        -4.301061        -0.776144         0.934413
 C        -3.825896        -1.615153         2.114942
 O        -5.017954        -0.978230        -0.042479
 H         1.218489        -0.383299        -0.204640
 H         0.765847        -1.461836         1.119083
 H         0.698826        -1.926425        -0.574153
 H        -3.337868         1.338811        -0.779185
 H        -1.281291         2.212117         0.614037
 H        -3.549852         0.815056         2.236368
 H        -4.677226         1.484119         1.090156
 H        -4.570131        -1.198052         2.843190
 H        -4.139305        -2.672179         1.788657
 H        -2.760258        -1.244595         2.278851
