19
Iteration:  3693
 C         0.362429        -1.138874         0.159376
 C        -0.817525        -0.439188        -0.245509
 C        -1.936682        -0.001487        -0.248057
 C        -2.899222         1.087902        -0.044756
 O        -2.124920         2.178613         0.218114
 C        -3.583199         0.793566         1.263701
 C        -4.280735        -0.535137         1.364288
 C        -3.817408        -1.427720         2.425766
 O        -5.210401        -0.831939         0.508552
 H         0.304027        -2.023825        -0.562077
 H         1.236984        -0.508840         0.017148
 H         0.225457        -1.429353         1.172740
 H        -3.721497         1.193268        -0.933340
 H        -1.263222         1.835748         0.467890
 H        -2.695346         0.661004         1.856243
 H        -4.011972         1.757477         1.536016
 H        -2.749507        -1.250040         2.695605
 H        -4.422828        -1.208424         3.415632
 H        -4.158623        -2.459926         2.110594
