19
Iteration:  4495charge 0 multiplicity 1
 C         0.131322        -1.400119         0.291622
 C        -0.990107        -0.509331         0.144448
 C        -1.840802         0.236358        -0.286496
 C        -2.762622         1.249696        -0.004608
 O        -2.281515         2.577065         0.128881
 C        -3.410120         0.689816         1.250322
 C        -4.194400        -0.654213         1.244822
 C        -3.651284        -1.691808         2.166343
 O        -5.263463        -0.848029         0.577480
 H         1.105171        -0.973353         0.371952
 H         0.014144        -2.070278         1.151366
 H         0.108940        -2.056950        -0.604173
 H        -3.584530         1.195355        -0.783984
 H        -1.531199         2.815136        -0.364772
 H        -2.576202         0.662959         1.951979
 H        -4.082827         1.401149         1.641701
 H        -2.676256        -1.778606         1.638648
 H        -3.402042        -1.211429         3.110167
 H        -4.334354        -2.497456         2.417179
