19
Iteration:   582charge 0 multiplicity 1
 C         1.246529        -0.500977        -0.624037
 C        -0.105918        -0.090352        -0.196774
 C        -1.225091         0.184711         0.258521
 C        -2.577465         0.705315         0.489094
 O        -2.573437         2.106634         0.875043
 C        -3.277896        -0.140067         1.601394
 C        -4.642714        -0.691647         1.144154
 C        -6.027001        -0.717592         2.046403
 O        -4.693068        -1.187726        -0.013107
 H         2.128795         0.091134        -0.264765
 H         1.442799        -1.517179        -0.199861
 H         1.318181        -0.676177        -1.739059
 H        -3.178181         0.680846        -0.456023
 H        -3.585900         2.388906         0.746986
 H        -2.682625        -1.024872         1.812672
 H        -3.178667         0.628982         2.478394
 H        -6.397303         0.299559         1.915069
 H        -6.613400        -1.586003         1.684175
 H        -5.925547        -0.817529         3.128008
