19
Iteration:  4469
 C         0.270589        -1.565488         0.349950
 C        -0.875272        -0.617119         0.048935
 C        -1.782443         0.224568        -0.192187
 C        -2.884542         1.199555        -0.021299
 O        -2.328895         2.541759         0.157561
 C        -3.642184         0.884327         1.337233
 C        -4.254826        -0.579556         1.264839
 C        -3.486099        -1.703562         1.945657
 O        -5.282682        -0.767742         0.646533
 H         1.184224        -0.911671         0.340320
 H         0.274058        -2.053392         1.375667
 H         0.470166        -2.347645        -0.470360
 H        -3.578683         1.131689        -0.830251
 H        -1.872907         2.879859        -0.575873
 H        -2.813265         0.981761         2.028272
 H        -4.404233         1.683729         1.529895
 H        -2.568143        -1.784483         1.353909
 H        -3.209065        -1.285573         2.958279
 H        -4.137686        -2.596181         2.142609
