19
Iteration:  2790charge 0 multiplicity 1
 C         0.462470        -1.499076        -0.475773
 C        -0.544049        -0.494615         0.044100
 C        -1.499201         0.235217         0.146384
 C        -2.794037         1.099174         0.105980
 O        -2.533672         2.485061         0.251569
 C        -3.568544         0.702693         1.442849
 C        -4.341865        -0.600046         1.203290
 C        -4.294192        -1.379711         2.538224
 O        -4.967700        -0.865495         0.247865
 H         0.961067        -2.013797         0.378263
 H        -0.092849        -2.282127        -1.002617
 H         1.293156        -1.025253        -1.016206
 H        -3.484001         0.937974        -0.694298
 H        -1.866080         2.518073         0.960609
 H        -2.891087         0.659922         2.262764
 H        -4.206281         1.595357         1.681518
 H        -4.838401        -0.783849         3.283230
 H        -4.856099        -2.346076         2.640937
 H        -3.322278        -1.742852         2.953951
