19
Iteration:  1017
 C         1.493647         0.202787         0.376214
 C         0.026124         0.137466         0.185538
 C        -1.163780         0.011068        -0.009487
 C        -2.582308         0.203964         0.059978
 O        -3.052265         1.525639         0.345923
 C        -3.282090        -1.066182         0.808966
 C        -4.703254        -0.481109         1.064309
 C        -5.031640        -0.394767         2.573587
 O        -5.534353        -0.461640         0.185215
 H         2.070598         0.999954        -0.150370
 H         1.652393         0.219824         1.477235
 H         1.955825        -0.778748         0.075216
 H        -2.866812        -0.004235        -0.983290
 H        -3.552418         1.713071        -0.496616
 H        -3.351357        -1.882591         0.111022
 H        -2.593246        -1.242063         1.674825
 H        -4.385358         0.207780         3.115064
 H        -6.069911        -0.025006         2.553920
 H        -4.857343        -1.420872         2.923833
