19
Iteration:  2743charge 0 multiplicity 1
 C         0.266298        -1.580840        -0.185670
 C        -0.692971        -0.435991        -0.300175
 C        -1.456729         0.423473         0.105129
 C        -2.736134         1.196140         0.330469
 O        -2.419292         2.604329         0.042300
 C        -3.687788         0.879887         1.505368
 C        -4.151482        -0.684242         1.339273
 C        -4.355445        -1.716939         2.432411
 O        -4.839801        -0.907054         0.271725
 H         0.684507        -1.963855         0.820989
 H        -0.255168        -2.475278        -0.649495
 H         1.137989        -1.394447        -0.866841
 H        -3.356440         0.836489        -0.565437
 H        -1.697868         2.721968         0.599375
 H        -2.998872         0.980841         2.432467
 H        -4.516831         1.539071         1.713622
 H        -4.243058        -1.351137         3.419247
 H        -5.306372        -2.202049         2.508024
 H        -3.798235        -2.620449         2.336842
