19
Iteration:  2537charge 0 multiplicity 1
 C         0.309191        -1.484953        -0.207302
 C        -0.795906        -0.516309        -0.009999
 C        -1.650743         0.217641         0.399953
 C        -2.810083         1.170813         0.252531
 O        -2.244790         2.588506         0.253313
 C        -4.009306         0.867412         1.256989
 C        -4.277447        -0.614107         1.139607
 C        -3.777975        -1.510793         2.224195
 O        -4.977337        -1.029459         0.290839
 H         0.908425        -1.528977         0.702149
 H        -0.178340        -2.428288        -0.318591
 H         0.955286        -1.333574        -1.027226
 H        -3.155046         1.081735        -0.736911
 H        -1.657523         2.768688         1.051774
 H        -3.694939         1.303050         2.174438
 H        -4.980624         1.184837         0.806563
 H        -4.412662        -2.440643         2.287656
 H        -2.679140        -1.847445         1.961519
 H        -3.682964        -1.068649         3.230167
