19
Iteration:  1810
 C         0.603572        -1.238804        -0.146393
 C        -0.699206        -0.533783         0.092223
 C        -1.509216         0.322287         0.357629
 C        -2.713762         1.250033         0.284762
 O        -2.434988         2.675151         0.676877
 C        -3.886912         0.750647         1.165629
 C        -4.410891        -0.724801         0.968366
 C        -4.228941        -1.540340         2.141635
 O        -4.873608        -1.275980        -0.047656
 H         1.385484        -0.728489        -0.722166
 H         1.061123        -1.664314         0.803613
 H         0.390301        -2.303351        -0.586994
 H        -3.026242         1.341847        -0.734471
 H        -1.932753         2.717854         1.453558
 H        -3.420523         0.887912         2.206842
 H        -4.817247         1.481087         1.188675
 H        -3.424181        -1.411072         2.926869
 H        -5.078277        -1.377840         2.846798
 H        -4.331582        -2.568504         1.687861
