19
Iteration:  4432
 C         0.345268        -1.613277         0.238809
 C        -0.656530        -0.569568        -0.172955
 C        -1.539326         0.156671         0.246882
 C        -2.797539         1.085204         0.144510
 O        -2.472063         2.446255         0.077778
 C        -3.840669         1.001167         1.272212
 C        -4.329309        -0.501087         1.336812
 C        -3.452394        -1.636546         1.776832
 O        -5.412075        -0.682872         0.726248
 H         1.406535        -1.160754         0.199565
 H         0.122399        -1.947315         1.249875
 H         0.350709        -2.479696        -0.368143
 H        -3.330394         0.756113        -0.859686
 H        -1.939898         2.522654        -0.715700
 H        -3.345274         1.360138         2.267477
 H        -4.775651         1.607433         1.109029
 H        -2.500844        -1.743291         1.169944
 H        -3.017767        -1.379396         2.751677
 H        -3.877981        -2.620333         1.739061
