19
Iteration:  4902charge 0 multiplicity 1
 C         0.650418        -1.163622        -1.230464
 C        -0.268865        -0.290823        -0.433094
 C        -1.272507         0.153971         0.167265
 C        -2.610592         0.871076         0.475942
 O        -2.409832         2.328315         0.236644
 C        -3.571464         0.669771         1.593606
 C        -4.518142        -0.543917         1.525572
 C        -5.616844        -0.803079         2.595395
 O        -4.407472        -1.493659         0.731091
 H         1.623819        -1.183426        -0.654538
 H         0.168050        -2.122515        -1.298037
 H         0.869031        -0.782579        -2.194194
 H        -3.074863         0.351663        -0.415174
 H        -1.644725         2.393275        -0.347787
 H        -2.987698         0.398266         2.560740
 H        -4.060026         1.591472         1.725215
 H        -5.201721        -0.712019         3.620976
 H        -6.420847        -0.093425         2.517222
 H        -5.942114        -1.751463         2.204126
