19
Iteration:   313charge 0 multiplicity 1
 C         1.381040        -0.527975        -0.034355
 C        -0.072311        -0.196661         0.104365
 C        -1.222593         0.229992         0.108629
 C        -2.660267         0.501624         0.134313
 O        -2.861240         1.921454         0.118671
 C        -3.190002        -0.050538         1.370089
 C        -4.694228        -0.524025         1.216874
 C        -5.111754        -1.879610         1.986833
 O        -5.499454         0.184795         0.621181
 H         2.100406        -0.109538         0.732137
 H         1.425686        -1.633750         0.026017
 H         1.808419        -0.115075        -0.951305
 H        -3.023535         0.000634        -0.792625
 H        -2.426702         2.255014        -0.647905
 H        -2.501526        -0.859888         1.903879
 H        -3.328933         0.754350         2.069318
 H        -4.713187        -1.829161         3.040428
 H        -6.175760        -1.807002         2.206141
 H        -4.854334        -2.776426         1.455569
