19
Iteration:  1749charge 0 multiplicity 1
 C         0.397391        -1.291528        -0.042237
 C        -0.548263        -0.243864         0.146779
 C        -1.597599         0.323027         0.237939
 C        -2.806371         1.154639         0.262895
 O        -2.505627         2.567915         0.514148
 C        -3.815386         0.751441         1.432761
 C        -4.325536        -0.691206         1.046130
 C        -4.353292        -1.713172         2.129981
 O        -4.552521        -1.099786        -0.116302
 H         1.084075        -1.143952        -0.889521
 H         0.867016        -1.622976         0.874470
 H        -0.296868        -2.022976        -0.408482
 H        -3.235924         1.134598        -0.800762
 H        -1.773037         2.663469         1.063715
 H        -3.171908         0.923390         2.301936
 H        -4.697309         1.336235         1.537696
 H        -3.841279        -2.531911         1.692938
 H        -4.298068        -1.425860         3.172408
 H        -5.378758        -2.078296         2.023530
