19
Iteration:  2429
 C         0.443227        -1.363841         0.147985
 C        -0.655998        -0.406887         0.028527
 C        -1.655177         0.297343        -0.047428
 C        -2.810287         1.119700         0.153661
 O        -2.431961         2.544500         0.183503
 C        -3.599331         0.753730         1.363928
 C        -4.330822        -0.581789         1.192818
 C        -3.852055        -1.860272         2.077900
 O        -5.277546        -0.813040         0.396998
 H         0.828059        -1.124282         1.179066
 H         0.029101        -2.366546         0.315021
 H         1.248041        -1.378399        -0.605750
 H        -3.556964         1.073870        -0.689486
 H        -1.426723         2.632973         0.451526
 H        -3.068295         0.881934         2.312706
 H        -4.450771         1.503007         1.435298
 H        -3.363186        -1.262171         2.839444
 H        -4.570897        -2.598531         2.443388
 H        -3.085138        -2.361677         1.524745
