19
Iteration:  3892charge 0 multiplicity 1
 C         0.559717        -1.450152         0.252123
 C        -0.623412        -0.529387         0.183459
 C        -1.613566         0.142206        -0.081716
 C        -2.771110         1.031691        -0.093787
 O        -2.444635         2.379426        -0.045281
 C        -3.605346         0.778639         1.303624
 C        -4.379762        -0.493494         1.363439
 C        -3.605361        -1.634465         1.772465
 O        -5.574993        -0.585680         0.950918
 H         0.879199        -1.810807        -0.747618
 H         1.385349        -0.886111         0.718682
 H         0.206751        -2.277621         0.919142
 H        -3.415083         0.809015        -0.908130
 H        -3.274197         2.859088        -0.300147
 H        -2.848504         0.709548         2.114699
 H        -4.160232         1.711895         1.289832
 H        -3.325358        -2.238805         0.803956
 H        -2.729797        -1.201428         2.313452
 H        -4.236073        -2.317383         2.436211
