19
Iteration:  2175charge 0 multiplicity 1
 C         0.744760        -1.098874         0.228904
 C        -0.461172        -0.359707         0.058225
 C        -1.562006         0.158983         0.067250
 C        -2.709272         1.109520         0.121611
 O        -2.138389         2.382950         0.370359
 C        -3.920878         0.656952         1.098793
 C        -4.617172        -0.644977         1.133901
 C        -3.809874        -1.735530         1.787226
 O        -5.744476        -0.803160         0.632620
 H         1.584474        -0.546485         0.804067
 H         0.703091        -2.062394         0.785202
 H         1.004529        -1.443174        -0.798323
 H        -2.882388         1.185552        -1.000132
 H        -1.510816         2.152153         1.002272
 H        -3.523157         1.017990         2.105233
 H        -4.714076         1.417850         0.926296
 H        -3.472300        -1.334006         2.712086
 H        -4.372589        -2.617119         1.848279
 H        -2.969230        -1.892468         1.137244
