19
Iteration:  1998
 C         0.305571        -1.480261         0.277850
 C        -0.593688        -0.404105         0.288973
 C        -1.439696         0.496828         0.306283
 C        -2.767956         1.238683         0.156777
 O        -2.615551         2.620236         0.264279
 C        -3.670068         0.652413         1.358152
 C        -4.330766        -0.638305         1.057904
 C        -3.725221        -1.921860         1.780545
 O        -5.226392        -0.799899         0.207899
 H         1.374433        -1.195978         0.237936
 H         0.079612        -2.059606         1.208237
 H         0.224430        -2.137791        -0.630151
 H        -3.183747         1.070200        -0.845600
 H        -2.185838         2.968144        -0.470551
 H        -2.995755         0.511036         2.231556
 H        -4.570147         1.238914         1.656401
 H        -4.308984        -2.806661         1.607899
 H        -2.780315        -2.192448         1.450125
 H        -3.811651        -1.632510         2.796366
