19
Iteration:  1231
 C         1.396572        -0.280383        -0.150447
 C         0.048077        -0.073132         0.127402
 C        -1.140590         0.131014         0.298097
 C        -2.602676         0.490781         0.204691
 O        -2.770148         1.971783         0.201291
 C        -3.465276         0.101293         1.391312
 C        -4.800349        -0.633178         1.172827
 C        -5.523170        -1.266617         2.399760
 O        -5.147213        -0.789527         0.019638
 H         1.560602         0.248234        -1.100712
 H         2.161961         0.045915         0.588838
 H         1.680553        -1.336646        -0.447014
 H        -3.022351         0.128138        -0.817560
 H        -1.879682         2.328416         0.027074
 H        -2.667673        -0.404703         2.012141
 H        -3.550796         1.041593         2.018027
 H        -6.575748        -1.054127         2.650458
 H        -5.273513        -2.367691         2.319615
 H        -4.995849        -1.009804         3.391849
