19
Iteration:  2749charge 0 multiplicity 1
 C         0.283177        -1.605174        -0.228898
 C        -0.644026        -0.405616        -0.298205
 C        -1.428998         0.441015         0.112722
 C        -2.719762         1.181310         0.277626
 O        -2.419305         2.572884         0.046153
 C        -3.661917         0.866083         1.579107
 C        -4.258341        -0.670443         1.310216
 C        -4.353653        -1.698122         2.415737
 O        -4.846251        -0.938716         0.321042
 H         0.632741        -1.830203         0.741363
 H        -0.119940        -2.486450        -0.703192
 H         1.155765        -1.454312        -0.862439
 H        -3.313821         0.873584        -0.582256
 H        -1.742695         2.802685         0.796178
 H        -3.219780         1.186872         2.527245
 H        -4.575849         1.542316         1.530953
 H        -4.413497        -1.215446         3.463071
 H        -5.411005        -2.123149         2.337634
 H        -3.605868        -2.551502         2.353346
