19
Iteration:   526charge 0 multiplicity 1
 C         1.105066        -0.618281        -0.470841
 C        -0.121333        -0.061935        -0.090072
 C        -1.279062         0.122760         0.242714
 C        -2.611668         0.775927         0.383855
 O        -2.655861         2.153165         0.721870
 C        -3.359018        -0.077166         1.496346
 C        -4.590176        -0.722303         1.086392
 C        -5.622251        -0.905192         2.176833
 O        -4.793631        -1.006326        -0.083429
 H         1.912719         0.048472        -0.126385
 H         1.357657        -1.654915        -0.139773
 H         1.319326        -0.472983        -1.584644
 H        -3.202792         0.554058        -0.518771
 H        -2.889690         2.149117         1.768853
 H        -2.721852        -0.887982         1.984099
 H        -3.356964         0.564793         2.474444
 H        -5.858130         0.105756         2.504518
 H        -6.599067        -1.322873         1.906769
 H        -5.290792        -1.426609         3.115367
