19
Iteration:  1994charge 0 multiplicity 1
 C         0.281898        -1.475364         0.282391
 C        -0.577305        -0.374597         0.268661
 C        -1.459338         0.479598         0.308025
 C        -2.767473         1.216006         0.158439
 O        -2.591230         2.620863         0.291571
 C        -3.673213         0.671659         1.368276
 C        -4.312130        -0.712676         1.016402
 C        -3.757462        -1.891443         1.793250
 O        -5.226254        -0.773665         0.196525
 H         1.316087        -1.111443         0.244587
 H         0.129999        -2.041414         1.224040
 H         0.210914        -2.104087        -0.642027
 H        -3.305313         1.036547        -0.845226
 H        -2.171899         2.874538        -0.613530
 H        -2.988596         0.555451         2.233933
 H        -4.621531         1.250007         1.574149
 H        -4.285483        -2.904779         1.853312
 H        -2.711190        -2.196631         1.425894
 H        -3.604446        -1.661279         2.904285
