19
Iteration:  2719
 C         0.188266        -1.553145        -0.161343
 C        -0.804031        -0.498244        -0.053861
 C        -1.682107         0.312930         0.067176
 C        -2.771796         1.211317         0.122451
 O        -2.492339         2.633121         0.161798
 C        -3.456778         0.675515         1.536736
 C        -4.238041        -0.591663         1.341857
 C        -4.218064        -1.615402         2.387044
 O        -4.703354        -0.860652         0.170692
 H         0.701644        -1.792397         0.820905
 H        -0.160404        -2.561733        -0.519342
 H         1.028529        -1.186084        -0.829373
 H        -3.557067         0.958423        -0.696858
 H        -1.516951         2.640454         0.286740
 H        -2.787634         0.944374         2.456847
 H        -4.257049         1.398464         1.659361
 H        -3.770543        -1.350425         3.353892
 H        -5.139864        -1.962152         2.747325
 H        -3.891879        -2.540955         2.018290
