19
Iteration:  1963
 C         0.374107        -1.402295         0.270509
 C        -0.571613        -0.332075         0.180281
 C        -1.592544         0.292640         0.113805
 C        -2.797696         1.185680         0.177632
 O        -2.481405         2.541064         0.455992
 C        -3.855268         0.746428         1.362284
 C        -4.298365        -0.666680         1.040206
 C        -3.784239        -1.804794         1.872679
 O        -5.098322        -0.829069         0.125818
 H         1.378006        -0.954180         0.290829
 H         0.316531        -1.927149         1.274476
 H         0.153720        -2.178762        -0.539671
 H        -3.447215         1.080413        -0.723879
 H        -2.114232         2.780614        -0.365774
 H        -3.328544         0.793459         2.359562
 H        -4.765462         1.451194         1.392406
 H        -4.664249        -2.366799         2.200723
 H        -3.087316        -2.450270         1.386402
 H        -3.141411        -1.645277         2.718440
