19
Iteration:  1793charge 0 multiplicity 1
 C         0.523159        -1.321284        -0.151050
 C        -0.632040        -0.441118         0.196863
 C        -1.514613         0.392816         0.285589
 C        -2.696430         1.289401         0.302175
 O        -2.463297         2.624659         0.623421
 C        -3.863724         0.720317         1.196519
 C        -4.315718        -0.770297         0.935840
 C        -4.337368        -1.638645         2.222667
 O        -4.817327        -1.176876        -0.075112
 H         1.065383        -0.594268        -0.756367
 H         1.125248        -1.527648         0.715120
 H         0.292465        -2.172981        -0.731473
 H        -3.144563         1.296671        -0.740968
 H        -1.964701         2.553227         1.398972
 H        -3.758362         0.710781         2.256894
 H        -4.597499         1.438447         0.980886
 H        -3.269620        -1.679999         2.447785
 H        -4.832413        -1.110327         3.067501
 H        -4.656613        -2.666344         2.230028
