19
Iteration:  2631
 C         0.152309        -1.543434        -0.001702
 C        -0.794826        -0.428366        -0.250854
 C        -1.726862         0.369825        -0.103685
 C        -2.775469         1.320673         0.257848
 O        -2.219129         2.633978         0.270238
 C        -3.743130         0.861727         1.369741
 C        -4.305634        -0.659984         1.247632
 C        -4.035665        -1.658858         2.427086
 O        -4.773149        -1.127929         0.253545
 H         0.353683        -1.370845         1.086299
 H        -0.448138        -2.512378        -0.069594
 H         1.145516        -1.638158        -0.562031
 H        -3.440149         1.296609        -0.698517
 H        -1.361801         2.591522         0.753792
 H        -3.377772         0.992873         2.469271
 H        -4.703574         1.372918         1.281180
 H        -3.233462        -2.127808         1.845461
 H        -3.722091        -1.318445         3.364316
 H        -4.852326        -2.325775         2.294370
