19
Iteration:   388charge 0 multiplicity 1
 C         1.301120        -0.712747        -0.079252
 C        -0.104577        -0.249190        -0.020712
 C        -1.213813         0.308789         0.051388
 C        -2.674591         0.788875         0.124713
 O        -2.811632         2.168540         0.367943
 C        -3.244736        -0.057808         1.358224
 C        -4.669596        -0.706799         1.188386
 C        -5.241135        -1.702506         2.282481
 O        -5.296697        -0.227771         0.248739
 H         1.921430        -0.141139         0.635303
 H         1.391030        -1.760639         0.153448
 H         1.723658        -0.383682        -1.006320
 H        -3.214534         0.540014        -0.859482
 H        -1.995490         2.681358         0.384547
 H        -2.590714        -0.918029         1.816080
 H        -3.395381         0.764846         2.052266
 H        -5.396631        -1.060240         3.204425
 H        -6.219743        -2.043889         1.952843
 H        -4.615653        -2.552691         2.443456
