19
Iteration:  4916
 C         0.599762        -1.032976        -1.159028
 C        -0.412987        -0.351648        -0.405452
 C        -1.336189         0.108495         0.228343
 C        -2.533900         0.845536         0.338084
 O        -2.378685         2.238702         0.242830
 C        -3.528120         0.643832         1.678172
 C        -4.526089        -0.579427         1.533954
 C        -5.592930        -0.765801         2.582725
 O        -4.310682        -1.443391         0.663779
 H         1.626569        -1.249930        -0.705241
 H         0.336185        -2.077526        -1.435780
 H         0.718927        -0.534535        -2.174501
 H        -3.263931         0.631116        -0.383858
 H        -1.816990         2.332207        -0.610511
 H        -3.081783         0.683450         2.666941
 H        -4.189636         1.547314         1.601385
 H        -5.067071        -0.744320         3.546478
 H        -6.296980         0.067420         2.403245
 H        -6.208004        -1.639126         2.558361
