19
Iteration:  1219
 C         1.478855        -0.221236        -0.135610
 C         0.012864        -0.115730         0.120599
 C        -1.193111         0.052992         0.256235
 C        -2.583077         0.571199         0.242198
 O        -2.765344         1.958861         0.116220
 C        -3.443106         0.044201         1.463883
 C        -4.772324        -0.665429         1.160631
 C        -5.413597        -1.238825         2.404713
 O        -5.246356        -0.756096         0.019656
 H         1.695644         0.451871        -1.002685
 H         2.059303         0.229736         0.705562
 H         1.734624        -1.286436        -0.362233
 H        -3.083692         0.030737        -0.626676
 H        -1.871401         2.412560         0.354072
 H        -3.036379        -0.877747         2.009308
 H        -3.699724         0.829530         2.209493
 H        -6.430191        -0.771927         2.282404
 H        -5.670305        -2.307859         2.312322
 H        -4.835295        -0.908971         3.288947
