19
Iteration:    15charge 0 multiplicity 1
 C         1.502434         0.210409         0.031857
 C         0.019133         0.074506         0.111970
 C        -1.153517        -0.224683         0.032503
 C        -2.640730        -0.289093         0.099676
 O        -3.299248         0.824718        -0.606744
 C        -3.114160        -0.179263         1.507313
 C        -4.604943        -0.169262         1.455210
 C        -5.469391        -1.246411         0.898426
 O        -5.103365         0.708707         2.180248
 H         2.047353         0.228959         0.969272
 H         1.822590        -0.729203        -0.459743
 H         1.831620         1.092960        -0.587839
 H        -3.059203        -1.255752        -0.352334
 H        -2.454055         1.078678        -1.141532
 H        -2.772222        -1.010657         2.028269
 H        -2.830033         0.809794         1.976897
 H        -4.940408        -2.141844         1.153638
 H        -6.445848        -1.147351         1.349818
 H        -5.522014        -1.382226        -0.193057
