19
Iteration:  2039
 C         0.426445        -1.530783         0.321085
 C        -0.657905        -0.463447         0.331051
 C        -1.474346         0.482093         0.209150
 C        -2.693588         1.176360         0.180031
 O        -2.782690         2.590654         0.214353
 C        -3.722696         0.683876         1.350733
 C        -4.235530        -0.678261         1.045694
 C        -3.621003        -1.911573         1.655017
 O        -5.277561        -0.602229         0.354811
 H         1.466948        -1.221946         0.430267
 H         0.174475        -2.236945         1.146973
 H         0.306222        -2.130618        -0.629774
 H        -3.239146         0.762553        -0.730837
 H        -1.885093         2.950295        -0.058928
 H        -3.144945         0.671147         2.312871
 H        -4.454227         1.512928         1.283220
 H        -3.576227        -2.774997         0.937772
 H        -2.766316        -1.893045         2.372043
 H        -4.472376        -2.338225         2.232585
