19
Iteration:  2898charge 0 multiplicity 1
 C         0.688886        -1.039286        -0.398444
 C        -0.648053        -0.410173        -0.314983
 C        -1.751486         0.053272        -0.158323
 C        -2.852923         0.951149         0.135533
 O        -2.254636         2.226617         0.304499
 C        -3.472429         0.586038         1.516003
 C        -4.427571        -0.554561         1.423416
 C        -4.730772        -1.217930         2.698822
 O        -4.825160        -0.924431         0.226257
 H         0.648420        -1.503272         0.662479
 H         0.761557        -1.885234        -1.143936
 H         1.635444        -0.420097        -0.496629
 H        -3.599216         1.030627        -0.740801
 H        -1.290721         2.104342         0.629598
 H        -2.554586         0.278141         2.120323
 H        -4.005920         1.459650         1.993844
 H        -4.996023        -0.528841         3.457853
 H        -5.486995        -2.001369         2.562698
 H        -3.779092        -1.611578         3.133257
