19
Iteration:  1286
 C         1.221049        -0.572270        -0.177456
 C        -0.060366        -0.097695         0.016307
 C        -1.209838         0.244759         0.344336
 C        -2.677660         0.762500         0.382489
 O        -2.768709         2.176841         0.170792
 C        -3.392393         0.084824         1.607319
 C        -4.679907        -0.707799         1.130192
 C        -5.473776        -1.263948         2.304592
 O        -4.836477        -0.926051        -0.048508
 H         1.680649        -0.138342        -1.061446
 H         2.038146        -0.299906         0.516568
 H         1.240401        -1.685784        -0.387226
 H        -3.114652         0.385972        -0.534373
 H        -3.365648         2.426165        -0.480604
 H        -2.669797        -0.347014         2.331577
 H        -3.886913         0.913503         2.189912
 H        -6.256208        -1.843319         1.838192
 H        -4.988460        -2.108026         2.838642
 H        -5.985070        -0.540525         3.001414
