19
Iteration:  2599
 C         0.220421        -1.539752        -0.134887
 C        -0.780340        -0.475053         0.064316
 C        -1.668423         0.316441        -0.033223
 C        -2.833695         1.208445         0.072341
 O        -2.361154         2.562434         0.451943
 C        -3.760603         0.896339         1.190365
 C        -4.180668        -0.665066         1.120555
 C        -3.877884        -1.522917         2.472701
 O        -4.941108        -1.043368         0.222575
 H         0.760701        -1.820845         0.819468
 H        -0.421068        -2.482010        -0.253678
 H         0.992533        -1.439923        -0.974071
 H        -3.279719         1.362985        -0.969143
 H        -1.685984         2.373197         1.197968
 H        -3.173496         1.072642         2.168274
 H        -4.587489         1.456733         1.516609
 H        -3.362494        -2.476363         2.199829
 H        -3.235983        -1.012956         3.149071
 H        -4.874430        -1.765439         2.828079
