19
Iteration:  2460
 C         0.501002        -1.398812         0.003046
 C        -0.864430        -0.714255         0.057421
 C        -1.608223         0.254858         0.219820
 C        -2.811449         1.185776         0.124530
 O        -2.468821         2.600150         0.239108
 C        -3.740500         0.860042         1.297976
 C        -4.332742        -0.584207         1.172779
 C        -3.731918        -1.719274         2.055876
 O        -5.176974        -0.864544         0.367698
 H         0.956978        -1.056953         0.925054
 H         0.465955        -2.445297         0.044252
 H         1.137618        -1.020554        -0.743355
 H        -3.276476         0.969509        -0.797839
 H        -1.591227         2.716455         0.483404
 H        -3.166856         0.858969         2.215236
 H        -4.581585         1.536914         1.310822
 H        -3.906176        -1.460492         3.124329
 H        -4.259626        -2.656732         1.912443
 H        -2.683620        -1.627376         2.146556
