19
Iteration:  3441charge 0 multiplicity 1
 C         0.309207        -1.130768        -0.139852
 C        -0.979565        -0.627502        -0.402030
 C        -1.852419         0.148515        -0.179279
 C        -2.845294         1.242684         0.134321
 O        -1.982942         2.425062         0.296414
 C        -3.566214         0.843929         1.480627
 C        -4.259049        -0.625882         1.329236
 C        -4.612876        -1.348453         2.673360
 O        -4.553946        -1.280522         0.270043
 H         0.499168        -2.213615         0.233554
 H         0.947136        -1.071478        -1.085184
 H         0.791639        -0.580303         0.695088
 H        -3.495091         1.378165        -0.682390
 H        -1.654001         2.755135        -0.559592
 H        -2.880783         0.615577         2.286942
 H        -4.293514         1.663573         1.892642
 H        -3.610157        -1.507431         3.159715
 H        -5.407314        -0.804745         3.261991
 H        -4.890988        -2.407062         2.476439
