19
Iteration:  3600
 C         0.403736        -1.550967        -0.325828
 C        -0.535600        -0.452082         0.075036
 C        -1.598210         0.186295         0.151068
 C        -2.806357         1.025525         0.238963
 O        -2.520657         2.460873         0.055143
 C        -3.728828         0.851262         1.400901
 C        -4.289289        -0.569139         1.302723
 C        -4.102035        -1.389336         2.505923
 O        -4.927253        -0.864435         0.273870
 H        -0.313501        -2.225127        -0.742005
 H         1.023828        -1.229069        -1.163748
 H         0.990589        -1.996200         0.512975
 H        -3.327250         0.741295        -0.624634
 H        -1.566929         2.438171        -0.215075
 H        -3.316229         1.057545         2.410799
 H        -4.672078         1.405420         1.260627
 H        -3.199845        -1.986852         2.517372
 H        -3.939792        -0.757005         3.307337
 H        -4.910779        -2.015588         2.793734
