19
Iteration:  1590
 C         0.712647        -1.201790        -0.044223
 C        -0.469874        -0.310470         0.112592
 C        -1.450144         0.403355         0.144616
 C        -2.687486         1.266097         0.190224
 O        -2.600125         2.627542         0.744890
 C        -3.774174         0.545434         1.213824
 C        -4.382636        -0.821087         0.990762
 C        -4.744056        -1.602624         2.312571
 O        -4.681942        -1.246957        -0.137894
 H         1.120118        -0.789400        -0.958232
 H         1.477893        -1.045675         0.716970
 H         0.372835        -2.196368        -0.281256
 H        -3.156418         1.329204        -0.815209
 H        -1.785213         3.091995         0.433334
 H        -3.244948         0.530035         2.163652
 H        -4.639544         1.207144         1.353718
 H        -5.745886        -1.613306         2.771214
 H        -4.429463        -2.687156         2.179749
 H        -4.175807        -1.080957         3.186000
