19
Iteration:  2266
 C         0.794551        -1.081348        -0.068052
 C        -0.516112        -0.443835         0.256451
 C        -1.500731         0.220194         0.455089
 C        -2.763981         0.931242         0.293912
 O        -2.359284         2.351478         0.025603
 C        -3.763279         0.688572         1.312830
 C        -4.489129        -0.548948         1.101029
 C        -3.950293        -1.739660         1.808763
 O        -5.596927        -0.668907         0.524279
 H         1.590867        -0.808327         0.665917
 H         0.608270        -2.129416         0.279746
 H         1.080678        -1.229453        -1.119379
 H        -3.295453         0.709704        -0.701707
 H        -1.611801         2.758451         0.488518
 H        -3.301606         0.680478         2.302136
 H        -4.556267         1.440264         1.345349
 H        -4.669877        -2.511597         1.528744
 H        -3.062659        -2.088666         1.227613
 H        -3.517730        -1.858274         2.783842
