19
Iteration:  4668
 C         0.422037        -1.383838        -0.722294
 C        -0.569768        -0.416195        -0.290239
 C        -1.490021         0.161252         0.288283
 C        -2.660507         0.985752         0.380688
 O        -2.397943         2.409781         0.269572
 C        -3.838684         0.840486         1.358824
 C        -4.376155        -0.573354         1.384046
 C        -4.674153        -1.117292         2.706487
 O        -4.553986        -1.239667         0.305245
 H         1.407912        -1.068626        -0.337982
 H         0.189814        -2.420055        -0.332296
 H         0.609298        -1.480120        -1.863120
 H        -3.069532         0.696121        -0.673786
 H        -1.674836         2.364324        -0.458595
 H        -3.392984         1.115106         2.350367
 H        -4.607092         1.669958         1.271203
 H        -3.751673        -1.033982         3.350603
 H        -5.324023        -0.277955         3.048653
 H        -5.168247        -2.074846         2.696090
