19
Iteration:  3387charge 0 multiplicity 1
 C         0.463513        -1.308067        -0.460460
 C        -0.680939        -0.419478        -0.220223
 C        -1.764128         0.232616        -0.231055
 C        -2.907401         1.098594         0.093725
 O        -2.306040         2.277785         0.573914
 C        -3.646927         0.657347         1.336334
 C        -4.225486        -0.614896         1.336804
 C        -4.745994        -1.040803         2.747338
 O        -4.418264        -1.221657         0.295125
 H         0.311176        -2.379015        -0.082101
 H         0.809508        -1.556778        -1.509118
 H         1.387787        -0.892818        -0.013551
 H        -3.574800         1.241785        -0.745389
 H        -1.413142         2.392608         0.118231
 H        -3.121976         0.917419         2.250815
 H        -4.590201         1.352319         1.174870
 H        -3.861923        -1.309299         3.330346
 H        -4.956841        -0.045064         3.159710
 H        -5.569652        -1.714804         2.694781
