19
Iteration:  2219
 C         0.857597        -1.130198        -0.004265
 C        -0.398721        -0.464410         0.245323
 C        -1.456764         0.139652         0.247695
 C        -2.629250         0.984144         0.186709
 O        -2.357118         2.380381         0.276882
 C        -3.959437         0.752638         1.057908
 C        -4.570126        -0.561938         1.119398
 C        -3.933462        -1.737093         1.806318
 O        -5.639092        -0.717274         0.653620
 H         1.633963        -0.588767         0.640901
 H         1.043503        -2.184411         0.249364
 H         0.965204        -1.158994        -1.099647
 H        -3.165872         0.825483        -0.776269
 H        -1.901976         2.626427         1.034892
 H        -3.706550         0.946408         2.159599
 H        -4.723127         1.507738         0.807359
 H        -4.595018        -2.021658         2.582027
 H        -3.909902        -2.518222         1.080053
 H        -2.918339        -1.644466         2.049952
