19
Iteration:  3474
 C         0.394264        -1.362053        -0.069523
 C        -0.822620        -0.580213        -0.382101
 C        -1.837836         0.113040        -0.254348
 C        -2.876318         1.118259         0.096484
 O        -2.341310         2.439667         0.316011
 C        -3.521640         0.779901         1.491120
 C        -4.116307        -0.601956         1.337925
 C        -4.486875        -1.363576         2.646932
 O        -4.577982        -0.904694         0.238361
 H         0.102003        -2.468413         0.090124
 H         1.095589        -1.183645        -0.936735
 H         0.856441        -0.909747         0.839202
 H        -3.655583         1.098495        -0.642801
 H        -1.600185         2.516545        -0.401731
 H        -2.914776         0.861374         2.383601
 H        -4.503826         1.307172         1.766222
 H        -3.607968        -1.446333         3.355294
 H        -5.309807        -0.982438         3.342667
 H        -4.807069        -2.406722         2.431407
