19
Iteration:  4033charge 0 multiplicity 1
 C         0.739911        -1.173518         0.243459
 C        -0.542335        -0.643869         0.048200
 C        -1.524406         0.064354         0.172340
 C        -2.741483         0.868208         0.118402
 O        -2.335928         2.229166        -0.315011
 C        -3.755287         0.880656         1.426900
 C        -4.523383        -0.441226         1.432582
 C        -3.681050        -1.720622         1.451468
 O        -5.715631        -0.443479         1.100859
 H         1.306603        -1.085503        -0.682920
 H         1.420278        -0.702597         0.954931
 H         0.912392        -2.207605         0.528698
 H        -3.379865         0.335043        -0.725233
 H        -3.149970         2.742087        -0.034776
 H        -3.113655         1.001781         2.329746
 H        -4.544896         1.633137         1.340321
 H        -2.989322        -1.781221         0.701851
 H        -3.232106        -1.739335         2.400154
 H        -4.369337        -2.578755         1.420078
