19
Iteration:   327
 C         1.312845        -0.589010        -0.027311
 C        -0.018650        -0.061574         0.028297
 C        -1.212269         0.148047         0.145856
 C        -2.619772         0.548324         0.128832
 O        -2.780477         1.968378         0.176827
 C        -3.346190        -0.131868         1.367400
 C        -4.734091        -0.546824         1.257294
 C        -5.054668        -1.780416         2.049959
 O        -5.456373         0.125700         0.527492
 H         1.856219        -0.174456         0.851057
 H         1.414620        -1.699661         0.004399
 H         1.774439        -0.382457        -1.022620
 H        -3.185073         0.247685        -0.717303
 H        -3.199627         2.259808        -0.732578
 H        -2.670017        -0.826141         1.848019
 H        -3.356308         0.709314         2.082466
 H        -4.552920        -1.773684         3.024708
 H        -6.096995        -2.131056         1.986434
 H        -4.416060        -2.560620         1.523501
