19
Iteration:   739charge 0 multiplicity 1
 C         1.287744        -0.342671        -0.406444
 C        -0.028435         0.114989        -0.143380
 C        -1.181081         0.254417         0.194740
 C        -2.597768         0.557143         0.417692
 O        -2.708634         1.865860         0.887422
 C        -3.247722        -0.416713         1.433516
 C        -4.664426        -0.738502         1.065397
 C        -5.736565        -0.139038         2.000563
 O        -4.976614        -1.384791         0.045253
 H         2.070988         0.464774        -0.462451
 H         1.399126        -1.035677         0.460641
 H         1.301677        -0.885418        -1.362222
 H        -3.152027         0.326958        -0.549379
 H        -3.475131         1.848713         1.459366
 H        -2.599922        -1.355926         1.282592
 H        -3.015508        -0.125398         2.453466
 H        -5.330633         0.740051         2.510824
 H        -6.679869         0.045908         1.517904
 H        -5.802294        -1.043833         2.538878
