19
Iteration:  1906
 C         0.521684        -1.133950         0.134769
 C        -0.846012        -0.619097         0.132731
 C        -1.774194         0.215679         0.201492
 C        -2.879780         1.267564         0.239743
 O        -2.257524         2.492824         0.613409
 C        -3.924913         0.745963         1.221922
 C        -4.271099        -0.741927         0.895464
 C        -3.804919        -1.672842         2.127715
 O        -5.031534        -0.948552        -0.029124
 H         1.250124        -0.340576        -0.142776
 H         0.782422        -1.596033         1.110096
 H         0.663795        -2.053053        -0.472479
 H        -3.393565         1.283764        -0.771344
 H        -1.301020         2.206069         0.538540
 H        -3.614588         0.886885         2.284393
 H        -4.763850         1.516399         1.121317
 H        -4.624421        -1.274375         2.754233
 H        -4.057902        -2.705842         1.956876
 H        -2.849747        -1.183928         2.332763
