19
Iteration:  3475charge 0 multiplicity 1
 C         0.395481        -1.375136        -0.072825
 C        -0.810426        -0.575149        -0.371502
 C        -1.841776         0.113838        -0.254486
 C        -2.875350         1.116100         0.084819
 O        -2.352643         2.437835         0.318746
 C        -3.519968         0.784846         1.493033
 C        -4.119915        -0.591328         1.348547
 C        -4.481200        -1.370177         2.644162
 O        -4.580859        -0.904511         0.231605
 H         0.103255        -2.478887         0.074031
 H         1.096570        -1.188734        -0.928054
 H         0.856111        -0.898310         0.826446
 H        -3.647886         1.087277        -0.635533
 H        -1.605401         2.525039        -0.378052
 H        -2.862516         0.854280         2.372101
 H        -4.509930         1.319243         1.783762
 H        -3.621054        -1.418398         3.347731
 H        -5.280819        -0.984879         3.330350
 H        -4.816905        -2.399306         2.435649
