19
Iteration:  1383charge 0 multiplicity 1
 C         0.862759        -0.917673         0.053098
 C        -0.258182        -0.034035        -0.089500
 C        -1.283451         0.639096         0.001494
 C        -2.635714         0.912571         0.180147
 O        -2.755146         2.376559         0.572047
 C        -3.416727         0.162369         1.468818
 C        -4.492116        -0.688359         1.042985
 C        -5.262555        -1.266568         2.217164
 O        -4.656729        -1.322572         0.030577
 H         1.618649        -0.860414        -0.795941
 H         1.526367        -0.845146         0.993581
 H         0.462557        -2.016165         0.031882
 H        -3.285665         0.585412        -0.726632
 H        -3.075341         2.935234        -0.093366
 H        -2.878217        -0.594506         2.124034
 H        -3.818825         0.892956         2.201508
 H        -4.786599        -2.184377         2.521369
 H        -5.288491        -0.766509         3.220008
 H        -6.311245        -1.514261         1.892932
