19
Iteration:  4936
 C         0.606473        -0.930433        -1.157690
 C        -0.537012        -0.507674        -0.320806
 C        -1.493154         0.032350         0.269217
 C        -2.747195         0.792779         0.374582
 O        -2.344520         2.209048         0.276346
 C        -3.527775         0.613917         1.556254
 C        -4.344227        -0.618764         1.570030
 C        -5.470947        -0.617321         2.580364
 O        -4.222848        -1.379080         0.564950
 H         1.538688        -0.958626        -0.472997
 H         0.607988        -1.951586        -1.530296
 H         0.784870        -0.251430        -1.982967
 H        -3.431312         0.519946        -0.534928
 H        -1.954460         2.321338        -0.646994
 H        -2.807921         0.597805         2.439937
 H        -4.156942         1.428203         1.816284
 H        -5.350109        -0.738112         3.634579
 H        -6.158174         0.211525         2.410729
 H        -6.066643        -1.483866         2.474369
