19
Iteration:  1664charge 0 multiplicity 1
 C         0.429699        -1.292454         0.162709
 C        -0.658132        -0.234293         0.116136
 C        -1.708996         0.346466        -0.104865
 C        -2.892923         1.229598         0.291265
 O        -2.570272         2.598115         0.498382
 C        -3.511291         0.546356         1.452236
 C        -4.274580        -0.800894         1.050274
 C        -4.577431        -1.725125         2.145828
 O        -4.426319        -0.979932        -0.149219
 H         1.153160        -0.926774        -0.678727
 H         1.042206        -1.197682         1.080164
 H         0.116587        -2.312214        -0.018184
 H        -3.434936         1.381316        -0.601637
 H        -1.949774         2.756618         1.314918
 H        -2.654853         0.371107         2.153587
 H        -4.240611         1.199125         2.013200
 H        -5.242545        -2.501307         1.883640
 H        -3.688849        -2.223234         2.539918
 H        -5.096516        -1.079353         2.853347
