19
Iteration:  1153charge 0 multiplicity 1
 C         1.560203        -0.044632         0.189514
 C         0.054311         0.018188         0.039089
 C        -1.174132         0.007975        -0.109137
 C        -2.579633         0.404641         0.032494
 O        -2.932073         1.785249         0.107723
 C        -3.232039        -0.369871         1.393398
 C        -4.740601        -0.526075         1.230937
 C        -5.538014        -1.060308         2.429534
 O        -5.332251        -0.562290         0.182191
 H         1.952037         0.629605        -0.608796
 H         1.938907         0.319983         1.164999
 H         1.964761        -1.063609         0.039485
 H        -3.183869         0.176862        -0.892693
 H        -2.254207         2.156198         0.622615
 H        -2.736757        -1.379127         1.549005
 H        -2.787784         0.235539         2.192031
 H        -5.790649        -0.259134         3.240405
 H        -6.446981        -1.576109         2.102575
 H        -4.923854        -1.791988         2.971866
