19
Iteration:  4070
 C         0.782173        -1.351672         0.079514
 C        -0.302432        -0.363900         0.237904
 C        -1.331969         0.254931         0.421284
 C        -2.628410         0.833619         0.081572
 O        -2.549078         2.174179        -0.421550
 C        -3.684073         0.772244         1.422996
 C        -4.550593        -0.417727         1.319169
 C        -3.864220        -1.758172         1.504604
 O        -5.809397        -0.410984         1.122812
 H         1.075091        -1.192472        -0.957397
 H         1.579634        -1.130001         0.815491
 H         0.258404        -2.362649         0.072872
 H        -2.984844         0.222164        -0.761875
 H        -3.360321         2.589875        -0.234719
 H        -3.058303         0.762892         2.322400
 H        -4.318503         1.696024         1.503626
 H        -2.964316        -1.917232         0.757743
 H        -3.290036        -1.710601         2.488021
 H        -4.549375        -2.596668         1.499621
