19
Iteration:  3005
 C         0.641508        -1.294490        -0.717578
 C        -0.311505        -0.270849        -0.327020
 C        -1.321496         0.302305         0.028687
 C        -2.684727         0.846091         0.336702
 O        -2.655599         2.303147         0.150908
 C        -3.429934         0.516060         1.605463
 C        -4.370483        -0.618821         1.405089
 C        -5.184934        -1.095499         2.714735
 O        -4.638711        -0.972178         0.342609
 H         0.700435        -2.022274         0.086537
 H         0.183081        -1.825414        -1.565128
 H         1.610882        -1.040148        -1.068773
 H        -3.316664         0.447776        -0.492445
 H        -1.941309         2.663051         0.792703
 H        -2.712293         0.300730         2.468045
 H        -4.035907         1.346358         1.935912
 H        -4.950120        -0.448924         3.570542
 H        -6.268853        -0.991878         2.531113
 H        -4.879919        -2.157882         2.794736
