19
Iteration:  2464
 C         0.468091        -1.370830        -0.017788
 C        -0.859468        -0.707249         0.096256
 C        -1.604359         0.230647         0.202338
 C        -2.800807         1.153276         0.145174
 O        -2.478502         2.600035         0.245960
 C        -3.732539         0.908147         1.309818
 C        -4.297606        -0.622591         1.169566
 C        -3.737461        -1.695030         2.067001
 O        -5.190323        -0.863760         0.340757
 H         0.993554        -1.099710         0.950983
 H         0.354413        -2.515698        -0.019517
 H         1.176618        -1.037345        -0.862540
 H        -3.315175         0.874847        -0.861220
 H        -1.477746         2.635280         0.554240
 H        -3.239407         0.956779         2.303957
 H        -4.624394         1.640854         1.141004
 H        -3.993717        -1.528304         3.118341
 H        -4.059599        -2.749412         1.930437
 H        -2.641294        -1.519334         2.196528
