19
Iteration:  1575charge 0 multiplicity 1
 C         0.696898        -1.055923        -0.163143
 C        -0.537345        -0.338872         0.243584
 C        -1.451135         0.458497         0.210314
 C        -2.742298         1.142842         0.205596
 O        -2.538710         2.436435         0.770165
 C        -3.762542         0.589312         1.189945
 C        -4.397761        -0.799527         0.967552
 C        -4.688802        -1.514406         2.329305
 O        -4.654471        -1.214160        -0.143066
 H         1.233686        -0.731319        -1.122505
 H         1.364911        -1.108896         0.709047
 H         0.519480        -2.136456        -0.154741
 H        -3.185217         1.101024        -0.768891
 H        -2.040025         2.866445        -0.046335
 H        -3.353830         0.625798         2.218310
 H        -4.604887         1.339212         1.254124
 H        -5.757971        -1.255254         2.337075
 H        -4.729409        -2.584632         2.137048
 H        -4.024277        -1.276564         3.119545
