19
Iteration:  4231charge 0 multiplicity 1
 C         0.785773        -0.717444         0.230650
 C        -0.683242        -0.637248         0.178176
 C        -1.675439         0.008608        -0.088099
 C        -2.760493         0.914193         0.101321
 O        -2.095738         2.186026        -0.406138
 C        -3.454449         0.636769         1.466064
 C        -4.540756        -0.491237         1.281032
 C        -4.154831        -1.997138         1.623639
 O        -5.692273        -0.328643         1.176162
 H         1.226469         0.034934        -0.353932
 H         1.168059        -0.545461         1.250089
 H         1.295485        -1.648073        -0.145120
 H        -3.495689         0.755502        -0.546225
 H        -1.367449         2.378134         0.130027
 H        -2.575550         0.468179         2.084451
 H        -4.051139         1.559523         1.733404
 H        -3.211361        -2.423807         1.324153
 H        -3.933959        -1.984137         2.704410
 H        -4.951497        -2.715936         1.501164
