19
Iteration:  3944charge 0 multiplicity 1
 C         0.529099        -1.178454         0.515125
 C        -0.577203        -0.524699        -0.256952
 C        -1.605216         0.129922        -0.327363
 C        -2.727627         1.032396        -0.122451
 O        -2.137490         2.471023         0.033502
 C        -3.571061         0.765734         1.131565
 C        -4.450777        -0.610339         1.348397
 C        -3.854511        -1.856550         1.873999
 O        -5.670002        -0.656877         1.239609
 H         1.361056        -1.568226        -0.172484
 H         0.899810        -0.385819         1.168458
 H         0.024764        -1.916938         1.082945
 H        -3.461495         1.046015        -1.007422
 H        -2.625617         3.057448        -0.660598
 H        -2.853098         0.797145         1.974790
 H        -4.250502         1.621861         1.134570
 H        -3.688960        -2.334629         0.974445
 H        -2.976688        -1.859296         2.489530
 H        -4.711395        -2.386978         2.225171
