19
Iteration:  3792charge 0 multiplicity 1
 C         0.431930        -1.701566        -0.148227
 C        -0.428172        -0.526913         0.327703
 C        -1.392330         0.275626         0.200524
 C        -2.716270         1.124045         0.204837
 O        -2.526728         2.413285        -0.122587
 C        -3.842692         0.911722         1.361350
 C        -4.460097        -0.494631         1.314521
 C        -3.517257        -1.526569         2.072080
 O        -5.517347        -0.743712         0.608433
 H        -0.058967        -2.065991        -1.088553
 H         1.464433        -1.391418        -0.265323
 H         0.296123        -2.512041         0.529590
 H        -3.181478         0.538612        -0.698438
 H        -3.136736         2.610110        -0.923080
 H        -3.423091         1.159017         2.330806
 H        -4.706742         1.536994         1.200366
 H        -2.680596        -1.551042         1.311291
 H        -3.120323        -1.067840         3.045183
 H        -3.940391        -2.509897         2.316668
