19
Iteration:  4569charge 0 multiplicity 1
 C         0.317530        -1.563162        -0.141362
 C        -0.806054        -0.606839        -0.256527
 C        -1.644155         0.252202         0.052860
 C        -2.890906         1.211917         0.203622
 O        -2.465940         2.458567         0.067536
 C        -3.629021         0.794545         1.440361
 C        -4.166748        -0.565830         1.323971
 C        -4.075067        -1.439772         2.486230
 O        -4.803958        -0.882904         0.282248
 H         1.131364        -0.925731         0.218920
 H         0.142104        -2.373281         0.642636
 H         0.735738        -2.068792        -1.110480
 H        -3.601512         0.940376        -0.518256
 H        -2.205827         2.855789         0.921875
 H        -2.930205         0.771700         2.275920
 H        -4.432929         1.490474         1.773612
 H        -2.979850        -1.506877         2.590100
 H        -4.383183        -0.836820         3.382005
 H        -4.699223        -2.364045         2.406797
