19
Iteration:  1101
 C         1.496626        -0.046546         0.247928
 C         0.064300         0.199227         0.105646
 C        -1.149636         0.090189         0.148955
 C        -2.539300         0.219029        -0.002263
 O        -3.216559         1.580534         0.219291
 C        -3.195735        -0.621950         1.034535
 C        -4.683262        -0.585972         1.174128
 C        -5.282897        -0.738915         2.584575
 O        -5.322589        -0.383314         0.118006
 H         2.072037         0.565762        -0.400911
 H         1.832165         0.206787         1.266400
 H         1.661294        -1.127810         0.019829
 H        -2.816466         0.004453        -1.074291
 H        -3.094393         1.969982        -0.638789
 H        -3.008136        -1.670951         0.764175
 H        -2.522244        -0.483577         1.917024
 H        -4.799324        -0.225335         3.429706
 H        -6.365826        -0.528208         2.540382
 H        -5.154928        -1.868942         2.761088
