19
Iteration:  2169charge 0 multiplicity 1
 C         0.759500        -1.097020         0.231642
 C        -0.502580        -0.396788         0.095603
 C        -1.584907         0.189559         0.007754
 C        -2.691368         1.094022         0.100857
 O        -2.147089         2.396479         0.391254
 C        -3.865302         0.723242         1.121802
 C        -4.600599        -0.649934         1.140891
 C        -3.821895        -1.736485         1.748659
 O        -5.732474        -0.823649         0.632728
 H         1.481272        -0.529413         0.788862
 H         0.633949        -2.006985         0.839162
 H         1.120853        -1.525310        -0.710067
 H        -3.286928         1.071092        -0.841834
 H        -1.400407         2.119940         1.036996
 H        -3.672101         1.016680         2.142414
 H        -4.646607         1.389216         0.747838
 H        -3.402592        -1.266837         2.702128
 H        -4.341105        -2.718359         2.064289
 H        -3.030384        -2.041047         0.999353
