19
Iteration:  2937
 C         0.692055        -1.075154        -0.494185
 C        -0.672970        -0.681789        -0.186847
 C        -1.506279         0.234630        -0.195990
 C        -2.652190         1.075005         0.177208
 O        -2.403576         2.529200         0.274433
 C        -3.310167         0.464016         1.413455
 C        -4.334051        -0.743701         1.446145
 C        -4.987266        -1.178167         2.738634
 O        -4.947535        -1.066522         0.299998
 H         1.090810        -1.643353         0.315303
 H         0.701232        -1.729622        -1.372446
 H         1.400325        -0.298043        -0.729549
 H        -3.411393         1.006241        -0.567691
 H        -1.469726         2.651947         0.414767
 H        -2.575828         0.241856         2.201535
 H        -3.675434         1.341502         1.955337
 H        -5.107864        -0.341372         3.546969
 H        -6.020561        -1.579327         2.622162
 H        -4.338233        -2.013956         3.141980
