19
Iteration:  1410
 C         0.913655        -0.961148         0.038928
 C        -0.289788        -0.101586        -0.080873
 C        -1.362844         0.449260        -0.018627
 C        -2.663796         1.093140         0.164720
 O        -2.823744         2.519361         0.602695
 C        -3.386809         0.237795         1.400680
 C        -4.405726        -0.902730         1.089583
 C        -5.298454        -1.355858         2.291796
 O        -4.643146        -1.269190        -0.055314
 H         1.685849        -0.930176        -0.721975
 H         1.383840        -0.822755         1.009583
 H         0.601304        -1.997410         0.157728
 H        -3.237186         0.880698        -0.696255
 H        -2.206091         3.063857         0.173746
 H        -2.639832        -0.178368         2.094111
 H        -3.983091         0.942383         2.025343
 H        -4.671459        -1.922858         3.030845
 H        -5.577997        -0.520340         2.955072
 H        -6.226212        -1.843769         2.075076
