19
Iteration:   215
 C         1.550704        -0.188540         0.078405
 C         0.125889        -0.030897         0.038209
 C        -1.089463         0.049702        -0.078082
 C        -2.573263         0.246855         0.051067
 O        -3.077899         1.524451        -0.191865
 C        -3.207919        -0.358241         1.385340
 C        -4.770776        -0.357173         1.470100
 C        -5.348006        -1.753425         1.749142
 O        -5.467156         0.571863         1.097846
 H         2.053075         0.077253         1.073578
 H         1.734135        -1.294794        -0.111168
 H         2.042419         0.242023        -0.811483
 H        -2.921186        -0.356304        -0.790221
 H        -2.418697         2.094856         0.163228
 H        -2.793953        -1.417546         1.686928
 H        -2.730871         0.281526         2.091053
 H        -5.169447        -2.185193         2.793902
 H        -6.454095        -1.604567         1.694165
 H        -5.170205        -2.461438         0.909307
