19
Iteration:  4799charge 0 multiplicity 1
 C         0.622751        -1.081480        -0.518018
 C        -0.727418        -0.457518        -0.553278
 C        -1.755310         0.283743        -0.540063
 C        -2.848806         0.946273         0.263001
 O        -2.370034         2.313545         0.351592
 C        -3.112509         0.391421         1.619979
 C        -4.211947        -0.660663         1.567483
 C        -5.399111        -0.719567         2.623263
 O        -4.387046        -1.361776         0.555160
 H         1.152343        -0.651445         0.251963
 H         0.640024        -2.148793        -0.266221
 H         1.128762        -0.998408        -1.505082
 H        -3.879864         1.022695        -0.283735
 H        -1.521245         2.279682         0.821548
 H        -2.229498        -0.227059         1.800840
 H        -3.223811         1.334972         2.286006
 H        -4.877567        -0.791106         3.620300
 H        -5.975351         0.184056         2.323534
 H        -6.167449        -1.496313         2.400205
