19
Iteration:  4625charge 0 multiplicity 1
 C         0.245574        -1.375133        -0.619648
 C        -0.611160        -0.552716         0.143333
 C        -1.471655         0.281636         0.290318
 C        -2.778909         1.022031         0.174947
 O        -2.381244         2.498369         0.072385
 C        -3.739726         0.867733         1.341510
 C        -4.298821        -0.548973         1.373662
 C        -4.456700        -1.361433         2.625537
 O        -4.649858        -1.123055         0.326522
 H         1.350011        -1.269461        -0.656512
 H         0.057123        -2.473276        -0.369838
 H        -0.107895        -1.219864        -1.722229
 H        -3.348853         0.610427        -0.592505
 H        -1.356267         2.482184         0.211906
 H        -3.255968         1.018016         2.309288
 H        -4.460114         1.680374         1.180420
 H        -3.456941        -1.562381         3.128469
 H        -5.076464        -0.707714         3.269641
 H        -4.773134        -2.375329         2.417198
