19
Iteration:  4364
 C         0.518733        -1.342814        -0.079084
 C        -0.521189        -0.509164         0.363932
 C        -1.466398         0.251132         0.332752
 C        -2.602953         1.047228        -0.020417
 O        -2.420156         2.427300        -0.062745
 C        -3.778248         0.724397         0.986976
 C        -4.405872        -0.568411         1.279504
 C        -3.830011        -1.882321         1.930532
 O        -5.580021        -0.499697         1.002665
 H         1.235395        -0.648406        -0.415366
 H         0.868746        -2.051308         0.640510
 H         0.125782        -1.906793        -0.957315
 H        -3.010389         0.640133        -1.005599
 H        -1.496835         2.509274         0.004456
 H        -3.172578         1.082745         1.870762
 H        -4.582667         1.405267         0.815145
 H        -3.051179        -2.218960         1.263018
 H        -3.501601        -1.478567         2.854343
 H        -4.680158        -2.611365         1.898818
