19
Iteration:  4338
 C         0.821843        -1.354293        -0.034082
 C        -0.384672        -0.518391         0.067760
 C        -1.371149         0.184864         0.284211
 C        -2.645937         0.985421         0.112356
 O        -2.381021         2.445587        -0.115070
 C        -3.808249         0.845895         1.120143
 C        -4.539697        -0.490975         1.289350
 C        -3.947292        -1.833488         1.860792
 O        -5.813056        -0.615449         1.084158
 H         1.525674        -0.602284        -0.390099
 H         1.161647        -1.853083         0.894883
 H         0.691334        -2.114087        -0.821124
 H        -3.170384         0.570920        -0.914966
 H        -1.456906         2.418877         0.108128
 H        -3.441313         1.287513         2.009854
 H        -4.566982         1.572840         0.764574
 H        -3.097741        -2.213863         1.269633
 H        -3.586592        -1.440753         2.854407
 H        -4.758095        -2.536501         1.846607
