19
Iteration:  3722charge 0 multiplicity 1
 C         0.495095        -1.340929         0.140365
 C        -0.766996        -0.561459        -0.133121
 C        -1.766760         0.108655        -0.418755
 C        -2.779230         1.191537         0.019363
 O        -2.168297         2.444401         0.138499
 C        -3.698043         0.784796         1.282313
 C        -4.391232        -0.627112         1.355049
 C        -3.844967        -1.541246         2.406969
 O        -5.311809        -0.841567         0.664188
 H         0.646992        -2.208205        -0.485743
 H         1.275360        -0.564900         0.108071
 H         0.334756        -1.690836         1.185902
 H        -3.546454         1.283544        -0.695757
 H        -1.453301         2.480238        -0.605922
 H        -3.113205         0.998398         2.179945
 H        -4.490518         1.549134         1.195556
 H        -2.794128        -1.525714         2.491290
 H        -4.245022        -1.427867         3.362639
 H        -4.196801        -2.522252         2.103372
