19
Iteration:  4261charge 0 multiplicity 1
 C         0.867726        -0.797098         0.131397
 C        -0.611966        -0.599360         0.157353
 C        -1.727099        -0.138456         0.028703
 C        -2.744418         0.844044        -0.013085
 O        -2.162343         2.229206        -0.178493
 C        -3.629753         0.749684         1.291560
 C        -4.463902        -0.463295         1.433244
 C        -4.071328        -1.977705         1.667152
 O        -5.713047        -0.320556         1.113953
 H         1.425800         0.008817        -0.378176
 H         1.194714        -0.792194         1.184947
 H         1.163595        -1.709609        -0.363714
 H        -3.440891         0.742875        -0.969542
 H        -1.209730         2.139321         0.222305
 H        -2.846576         0.988820         1.950759
 H        -4.310305         1.603646         1.277015
 H        -3.092821        -2.093345         1.145011
 H        -3.716656        -2.011930         2.774881
 H        -4.900500        -2.635313         1.362314
