19
Iteration:  4557
 C         0.290659        -1.511150         0.016793
 C        -0.795800        -0.573180        -0.358501
 C        -1.720926         0.214292        -0.097003
 C        -2.820138         1.086238         0.190138
 O        -2.460604         2.537839         0.092486
 C        -3.585426         0.846057         1.480548
 C        -4.247526        -0.532680         1.329961
 C        -3.989167        -1.495275         2.457872
 O        -4.837095        -0.890640         0.312207
 H         1.208093        -1.082698         0.442368
 H        -0.205145        -2.169310         0.780160
 H         0.533582        -2.187469        -0.877477
 H        -3.474871         1.031924        -0.639405
 H        -2.148855         2.782591         0.946368
 H        -2.917512         0.785666         2.339731
 H        -4.338582         1.681451         1.571361
 H        -2.968437        -1.866117         2.459039
 H        -4.211825        -1.096673         3.473537
 H        -4.569644        -2.451070         2.280523
