19
Iteration:  4281charge 0 multiplicity 1
 C         0.879904        -0.944597         0.114857
 C        -0.439948        -0.451426         0.070328
 C        -1.627658        -0.184557         0.017975
 C        -2.762093         0.809330        -0.004718
 O        -2.314166         2.101276        -0.003096
 C        -3.715764         0.766125         1.245422
 C        -4.521443        -0.422994         1.298360
 C        -3.914971        -1.723992         1.691111
 O        -5.790213        -0.309049         1.109492
 H         1.694621        -0.289925        -0.393973
 H         1.259296        -1.089522         1.150906
 H         0.998367        -1.854530        -0.453656
 H        -3.585503         0.552318        -0.881403
 H        -1.383622         2.012587         0.348573
 H        -3.066300         0.834044         2.150351
 H        -4.351320         1.636479         1.124097
 H        -2.921281        -1.966921         1.226813
 H        -3.505099        -1.865941         2.752027
 H        -4.559542        -2.621062         1.602554
