19
Iteration:  1233charge 0 multiplicity 1
 C         1.399835        -0.291931        -0.174132
 C         0.030747        -0.065799         0.144126
 C        -1.153226         0.155615         0.302095
 C        -2.614387         0.475262         0.200410
 O        -2.756861         1.975205         0.212777
 C        -3.455235         0.099048         1.392554
 C        -4.785491        -0.620387         1.177668
 C        -5.540705        -1.267609         2.399146
 O        -5.137033        -0.799965         0.016190
 H         1.676232         0.205443        -1.082470
 H         2.147902         0.021401         0.566643
 H         1.657309        -1.356124        -0.425322
 H        -2.969411         0.141339        -0.870871
 H        -1.957088         2.366289        -0.049389
 H        -2.721830        -0.376643         2.071440
 H        -3.554298         1.091714         1.952304
 H        -6.582708        -1.147022         2.661491
 H        -5.248467        -2.386616         2.302274
 H        -5.012640        -1.000936         3.410176
