19
Iteration:  4737
 C         0.538507        -1.145559        -0.502016
 C        -0.738771        -0.440775        -0.445117
 C        -1.761583         0.221497        -0.289871
 C        -2.841462         1.032273         0.185067
 O        -2.214953         2.358406         0.360728
 C        -3.389147         0.520881         1.510902
 C        -4.328769        -0.697292         1.459923
 C        -5.066115        -0.864584         2.651167
 O        -4.457410        -1.356208         0.479490
 H         1.221013        -0.558641         0.255015
 H         0.453970        -2.207999        -0.157184
 H         1.051151        -1.102393        -1.485092
 H        -3.705459         1.165274        -0.465439
 H        -1.482573         2.458035        -0.268225
 H        -2.593759         0.301527         2.269000
 H        -3.839635         1.394391         1.945611
 H        -4.283765        -1.093606         3.428360
 H        -5.534723         0.020395         3.111333
 H        -5.737726        -1.766327         2.588882
