19
Iteration:  3319
 C         0.343058        -1.370095        -0.812852
 C        -0.512999        -0.410155        -0.095012
 C        -1.370412         0.385094         0.152353
 C        -2.679847         1.109428         0.247794
 O        -2.423673         2.479030         0.305316
 C        -3.549655         0.674217         1.404996
 C        -4.327060        -0.746584         1.402010
 C        -5.118299        -1.067597         2.726755
 O        -4.386580        -1.358495         0.361670
 H         0.458349        -2.417380        -0.448161
 H         0.171365        -1.467124        -1.920539
 H         1.389651        -0.946139        -0.751017
 H        -3.235969         0.807288        -0.658988
 H        -1.830493         2.746704        -0.346226
 H        -3.088985         0.811767         2.387031
 H        -4.458777         1.413101         1.295520
 H        -4.771083        -1.831980         3.429842
 H        -5.350476        -0.138560         3.252643
 H        -5.980631        -1.624222         2.298303
