19
Iteration:    67
 C         1.474289         0.238165         0.076284
 C         0.076140        -0.073873         0.017297
 C        -1.154969        -0.165111        -0.001543
 C        -2.625937        -0.173905         0.027751
 O        -3.137548         1.096635        -0.630219
 C        -3.167029        -0.489096         1.530038
 C        -4.630426        -0.222611         1.569364
 C        -5.483933        -1.486277         1.215710
 O        -5.157923         0.878352         1.831543
 H         1.692943         0.485900         1.100418
 H         2.189236        -0.516845        -0.219544
 H         1.621851         1.169365        -0.499729
 H        -3.079454        -0.911900        -0.582112
 H        -3.011706         1.687063         0.116277
 H        -3.050645        -1.542162         1.639643
 H        -2.640115         0.061698         2.357354
 H        -5.235492        -2.435768         1.628616
 H        -6.500297        -1.200039         1.421032
 H        -5.405206        -1.722166         0.138840
