19
Iteration:  3019charge 0 multiplicity 1
 C         0.650205        -1.299408        -0.763738
 C        -0.480951        -0.392588        -0.274808
 C        -1.316116         0.365016         0.163607
 C        -2.640166         0.961803         0.272332
 O        -2.652162         2.323786         0.087159
 C        -3.286749         0.493043         1.662232
 C        -4.366398        -0.651140         1.501880
 C        -5.194184        -1.101445         2.637815
 O        -4.686482        -1.024551         0.331394
 H         1.106283        -2.065162        -0.114449
 H         0.386102        -1.783963        -1.699196
 H         1.429209        -0.525342        -0.848538
 H        -3.329636         0.545431        -0.579374
 H        -1.949426         2.699514         0.566610
 H        -2.511716         0.403473         2.470182
 H        -3.922699         1.339313         1.882800
 H        -5.046565        -0.588116         3.547554
 H        -6.197100        -1.009789         2.233773
 H        -5.195659        -2.126846         2.957777
