19
Iteration:  3372
 C         0.488910        -1.363944        -0.515833
 C        -0.605866        -0.444469        -0.399104
 C        -1.631907         0.196196        -0.076277
 C        -2.788637         1.085500         0.130394
 O        -2.361450         2.460389         0.537812
 C        -3.728162         0.734786         1.334753
 C        -4.345611        -0.692312         1.340603
 C        -4.797268        -1.008806         2.741607
 O        -4.424558        -1.309282         0.335727
 H         0.278579        -2.286358         0.004636
 H         0.619907        -1.516216        -1.602026
 H         1.413734        -0.976299        -0.033363
 H        -3.285524         1.148490        -0.848427
 H        -1.488114         2.562442         0.241569
 H        -3.041310         0.859422         2.185189
 H        -4.507632         1.446389         1.572578
 H        -4.024253        -1.630438         3.247973
 H        -5.127974        -0.143381         3.356135
 H        -5.615579        -1.793242         2.734861
