19
Iteration:  3968charge 0 multiplicity 1
 C         0.575493        -1.105582         0.474729
 C        -0.663966        -0.470780         0.029046
 C        -1.656108         0.125173        -0.360418
 C        -2.749470         1.149177        -0.204412
 O        -2.061512         2.329920        -0.044830
 C        -3.594085         0.672231         1.184670
 C        -4.468582        -0.654425         1.383796
 C        -3.797569        -1.910095         1.795475
 O        -5.765091        -0.551510         1.251686
 H         1.081085        -1.190125        -0.517542
 H         1.160087        -0.397242         1.109883
 H         0.382375        -2.126164         0.935721
 H        -3.364971         1.236032        -1.071972
 H        -2.321962         3.037346        -0.728563
 H        -2.721199         0.574757         1.877466
 H        -4.165343         1.574695         1.430267
 H        -3.373026        -2.382185         0.858318
 H        -2.991687        -1.588241         2.442453
 H        -4.508386        -2.669292         2.250050
