19
Iteration:  2274
 C         0.768277        -1.133859        -0.004500
 C        -0.477047        -0.368489         0.208438
 C        -1.539520         0.248350         0.439517
 C        -2.797790         0.963597         0.228661
 O        -2.358769         2.298255        -0.006252
 C        -3.779353         0.740275         1.429482
 C        -4.495905        -0.611733         1.162302
 C        -3.918698        -1.800609         1.759909
 O        -5.542310        -0.626793         0.496114
 H         1.729690        -0.805256         0.559412
 H         0.554881        -2.186386         0.210836
 H         1.028281        -1.137245        -1.085181
 H        -3.364456         0.670914        -0.658013
 H        -1.660447         2.371694         0.612484
 H        -3.158254         0.730085         2.379787
 H        -4.561498         1.516343         1.389699
 H        -4.649385        -2.519022         1.442953
 H        -2.960458        -1.869406         1.290042
 H        -3.960597        -1.767043         2.851382
