19
Iteration:  1321charge 0 multiplicity 1
 C         1.116627        -0.715866        -0.124913
 C        -0.248504        -0.216280         0.101347
 C        -1.241372         0.432508         0.170447
 C        -2.671852         0.813416         0.294621
 O        -2.859347         2.214411         0.323029
 C        -3.293294         0.183150         1.565914
 C        -4.473555        -0.648225         1.108131
 C        -5.431536        -1.275402         2.231462
 O        -4.730541        -1.054938        -0.037765
 H         1.266229        -0.237852        -1.046089
 H         1.735132        -0.485217         0.726663
 H         1.091932        -1.800774        -0.288671
 H        -3.045209         0.312216        -0.586464
 H        -3.760140         2.425783         0.292378
 H        -2.618530        -0.417653         2.180506
 H        -3.636521         1.097960         2.117609
 H        -5.708870        -2.223367         1.765994
 H        -4.886739        -1.281373         3.200598
 H        -6.338089        -0.642333         2.410485
