19
Iteration:  1551charge 0 multiplicity 1
 C         0.739292        -0.934515        -0.184996
 C        -0.482931        -0.295269         0.191222
 C        -1.609190         0.192656         0.345487
 C        -2.734158         1.085479         0.273969
 O        -2.482501         2.400014         0.655073
 C        -3.837670         0.628892         1.299790
 C        -4.368854        -0.739755         1.006410
 C        -4.755125        -1.475178         2.236540
 O        -4.576883        -1.192910        -0.135465
 H         1.009080        -0.456937        -1.162390
 H         1.602298        -0.934728         0.521581
 H         0.641651        -2.057163        -0.367637
 H        -3.120248         0.942033        -0.769543
 H        -1.904841         2.859903         0.039360
 H        -3.570568         0.752603         2.371664
 H        -4.806251         1.192879         1.229162
 H        -5.600650        -0.934731         2.677688
 H        -5.131619        -2.426129         1.905827
 H        -3.846281        -1.623843         2.735519
