19
Iteration:  3742charge 0 multiplicity 1
 C         0.474271        -1.420213         0.074057
 C        -0.764213        -0.630949        -0.132150
 C        -1.646853         0.192578        -0.038672
 C        -2.768922         1.091892        -0.087943
 O        -2.265015         2.547508         0.139438
 C        -3.669821         0.854742         1.155568
 C        -4.335181        -0.578281         1.291323
 C        -3.825883        -1.674823         2.358722
 O        -5.349216        -0.805026         0.745074
 H         0.577090        -2.181136        -0.672893
 H         1.289238        -0.651969         0.055903
 H         0.416888        -1.885363         1.137328
 H        -3.326072         0.890784        -0.950470
 H        -2.108644         2.970729        -0.748928
 H        -3.033854         1.163293         2.035206
 H        -4.587998         1.487600         1.094198
 H        -2.728543        -1.717933         2.452802
 H        -4.115535        -1.197036         3.284574
 H        -4.404186        -2.587591         2.225511
