19
Iteration:  3101
 C         0.756926        -1.084379        -0.642307
 C        -0.456804        -0.257625        -0.494723
 C        -1.624185         0.075577        -0.161919
 C        -2.767913         0.896016         0.232257
 O        -2.261474         2.325982         0.314361
 C        -3.503384         0.611386         1.566749
 C        -4.389712        -0.713082         1.469531
 C        -5.191947        -1.018606         2.699499
 O        -4.670120        -1.200294         0.455959
 H         0.591357        -1.731735         0.243650
 H         0.681700        -1.693946        -1.583018
 H         1.770673        -0.611499        -0.589797
 H        -3.449206         0.823067        -0.554379
 H        -1.384196         2.284452         0.804242
 H        -2.772232         0.798371         2.298052
 H        -4.358597         1.382898         1.604947
 H        -4.890302        -0.405274         3.570507
 H        -6.233297        -0.663453         2.561592
 H        -5.181984        -2.136415         2.795915
