19
Iteration:  2752charge 0 multiplicity 1
 C         0.285651        -1.601338        -0.261311
 C        -0.611836        -0.412139        -0.286594
 C        -1.434757         0.447421         0.120690
 C        -2.706808         1.178500         0.258845
 O        -2.416333         2.561706         0.059932
 C        -3.652102         0.853654         1.591159
 C        -4.303210        -0.651729         1.318092
 C        -4.360592        -1.696174         2.425417
 O        -4.848971        -0.948959         0.326795
 H         0.603272        -1.762968         0.800392
 H        -0.142778        -2.529785        -0.717330
 H         1.216422        -1.438654        -0.867446
 H        -3.361905         0.879257        -0.657149
 H        -1.858597         2.837068         0.745501
 H        -3.244096         1.189904         2.627664
 H        -4.530008         1.473264         1.389203
 H        -4.389618        -1.196215         3.405441
 H        -5.336863        -2.063084         2.216390
 H        -3.572157        -2.413303         2.373122
