19
Iteration:  1090charge 0 multiplicity 1
 C         1.507187        -0.034398         0.266913
 C         0.097618         0.201692         0.196481
 C        -1.101822         0.097871         0.101643
 C        -2.628928         0.324644        -0.002143
 O        -3.216150         1.507765         0.202019
 C        -3.139828        -0.750585         1.015271
 C        -4.619210        -0.466092         1.120342
 C        -5.271657        -0.707275         2.547805
 O        -5.381405        -0.404347         0.190634
 H         1.932109         0.568555        -0.490646
 H         2.010102         0.149271         1.227435
 H         1.793603        -1.062189        -0.069703
 H        -2.865059        -0.223781        -0.953307
 H        -3.581374         1.971203        -0.508848
 H        -3.065894        -1.638054         0.402090
 H        -2.764533        -0.902264         2.054270
 H        -4.731936        -0.163716         3.357013
 H        -6.297260        -0.333530         2.447167
 H        -5.286454        -1.831232         2.802821
