19
Iteration:  4271
 C         0.892383        -0.885083         0.138398
 C        -0.523496        -0.495052         0.096562
 C        -1.708210        -0.188890         0.027107
 C        -2.791574         0.780807         0.003582
 O        -2.241511         2.173794        -0.069642
 C        -3.635380         0.790641         1.225669
 C        -4.562807        -0.484455         1.381951
 C        -3.954505        -1.840188         1.687140
 O        -5.692297        -0.301673         1.114754
 H         1.375560        -0.025818        -0.408292
 H         1.335565        -0.996304         1.147392
 H         1.040810        -1.815176        -0.388799
 H        -3.379329         0.704333        -1.044031
 H        -1.280520         2.161038         0.280306
 H        -3.060692         0.932803         2.132682
 H        -4.340027         1.612887         1.133014
 H        -3.095456        -2.039721         1.007597
 H        -3.772455        -1.904185         2.818336
 H        -4.787197        -2.523505         1.406631
