19
Iteration:   691
 C         1.343225        -0.397557        -0.557933
 C        -0.070100        -0.096473        -0.151400
 C        -1.178560         0.295126         0.181639
 C        -2.607167         0.636537         0.480982
 O        -2.714032         2.007410         0.912454
 C        -3.314712        -0.338640         1.526964
 C        -4.693829        -0.767289         1.101924
 C        -5.989172        -0.313586         1.981341
 O        -4.762012        -1.388729         0.058864
 H         1.810081         0.594819        -0.468682
 H         1.873566        -1.145515         0.028641
 H         1.390147        -0.539998        -1.649444
 H        -3.132607         0.683742        -0.486937
 H        -1.752904         2.225784         1.297581
 H        -2.848899        -1.304123         1.523217
 H        -3.054920         0.057590         2.561377
 H        -5.799273         0.729838         2.064513
 H        -6.941522        -0.416581         1.435176
 H        -6.071968        -0.854468         2.913712
