19
Iteration:  3099
 C         0.744840        -1.080164        -0.665553
 C        -0.456373        -0.256487        -0.458335
 C        -1.625105         0.062740        -0.153185
 C        -2.765239         0.890407         0.232470
 O        -2.281544         2.313721         0.311173
 C        -3.488109         0.602328         1.576577
 C        -4.356129        -0.694187         1.482788
 C        -5.187896        -1.016544         2.685698
 O        -4.668474        -1.184737         0.438290
 H         0.566457        -1.697623         0.233722
 H         0.669465        -1.730613        -1.581830
 H         1.791999        -0.620466        -0.560408
 H        -3.498910         0.829263        -0.602474
 H        -1.478690         2.264997         0.778993
 H        -2.774920         0.791936         2.336926
 H        -4.375118         1.334560         1.568934
 H        -4.898594        -0.379464         3.516335
 H        -6.213764        -0.698128         2.587351
 H        -5.234044        -2.086107         2.831369
