19
Iteration:   242charge 0 multiplicity 1
 C         1.438085        -0.314085         0.057710
 C         0.041737         0.029834        -0.039284
 C        -1.175870         0.095940         0.092534
 C        -2.646771         0.216497         0.145538
 O        -2.896641         1.650274        -0.033328
 C        -3.208158        -0.295058         1.358162
 C        -4.730086        -0.442871         1.236024
 C        -5.197978        -1.736461         1.821972
 O        -5.478342         0.497821         1.006382
 H         1.869573        -0.024028         0.985108
 H         1.452447        -1.404232         0.025075
 H         2.079051         0.076239        -0.756524
 H        -3.060902        -0.397228        -0.767891
 H        -3.082428         1.677134        -0.939475
 H        -2.695806        -1.063404         1.784595
 H        -3.032728         0.667049         2.012669
 H        -4.627056        -2.247635         2.585149
 H        -6.260760        -1.767955         2.121948
 H        -5.189279        -2.312797         0.840450
