19
Iteration:  2910charge 0 multiplicity 1
 C         0.709167        -1.070420        -0.368754
 C        -0.664521        -0.534901        -0.279333
 C        -1.708004         0.068580        -0.214156
 C        -2.824517         0.997292         0.173794
 O        -2.307388         2.355368         0.327097
 C        -3.386010         0.557054         1.455617
 C        -4.439537        -0.553932         1.345451
 C        -4.793115        -1.199543         2.679009
 O        -4.849992        -0.992504         0.324353
 H         1.242390        -1.637172         0.471422
 H         0.773565        -1.740564        -1.293076
 H         1.336689        -0.139318        -0.633828
 H        -3.670858         1.030688        -0.574045
 H        -1.369582         2.195723         0.540843
 H        -2.603085         0.170465         2.152928
 H        -3.681370         1.527472         1.989529
 H        -5.094412        -0.487427         3.424188
 H        -5.572320        -1.985906         2.575228
 H        -3.842998        -1.730978         2.925151
