19
Iteration:  1721charge 0 multiplicity 1
 C         0.460545        -1.305578         0.061675
 C        -0.761586        -0.434187         0.005662
 C        -1.604223         0.403022         0.187431
 C        -2.841299         1.258943         0.343531
 O        -2.524590         2.658398         0.413529
 C        -3.738406         0.663352         1.539436
 C        -4.232898        -0.791646         1.044029
 C        -4.477830        -1.832723         2.163311
 O        -4.438109        -0.933053        -0.170502
 H         1.113375        -0.897914        -0.740931
 H         0.902893        -1.265949         1.083989
 H         0.157574        -2.344308        -0.210064
 H        -3.326725         1.198223        -0.606041
 H        -1.615051         2.789263         0.603760
 H        -3.186908         0.878951         2.488932
 H        -4.782981         1.083985         1.684278
 H        -4.191147        -2.773908         1.632127
 H        -4.019740        -1.621105         3.142093
 H        -5.561043        -1.988108         2.388342
