19
Iteration:  3691
 C         0.360543        -1.143357         0.146600
 C        -0.823159        -0.429316        -0.245735
 C        -1.971108        -0.014967        -0.231995
 C        -2.898408         1.092055        -0.044456
 O        -2.122988         2.172327         0.217796
 C        -3.577765         0.784349         1.249594
 C        -4.275861        -0.525420         1.352125
 C        -3.815842        -1.433243         2.444042
 O        -5.191186        -0.819420         0.504859
 H         0.403245        -2.040697        -0.525328
 H         1.247448        -0.524345         0.035989
 H         0.244685        -1.358287         1.157662
 H        -3.681613         1.163807        -0.908442
 H        -1.327891         1.843532         0.541698
 H        -2.717354         0.668522         1.865027
 H        -4.064259         1.700516         1.574000
 H        -2.803159        -1.272233         2.687964
 H        -4.398221        -1.170814         3.359282
 H        -4.146449        -2.435059         2.107470
