19
Iteration:    69charge 0 multiplicity 1
 C         1.464405         0.247704         0.091490
 C         0.068496        -0.087289        -0.001658
 C        -1.145365        -0.163772         0.006078
 C        -2.607175        -0.161891         0.034470
 O        -3.152854         1.099323        -0.619875
 C        -3.171046        -0.482374         1.533472
 C        -4.635997        -0.228879         1.546100
 C        -5.489648        -1.497531         1.224571
 O        -5.147398         0.879338         1.822652
 H         1.687700         0.468262         1.124983
 H         2.154154        -0.541956        -0.252383
 H         1.662207         1.162475        -0.552557
 H        -3.068193        -0.885936        -0.660692
 H        -2.811267         1.758320         0.098214
 H        -2.994100        -1.505381         1.617428
 H        -2.610067         0.029266         2.389559
 H        -5.293213        -2.427593         1.745240
 H        -6.539903        -1.282204         1.429283
 H        -5.477096        -1.742632         0.143164
