19
Iteration:   210charge 0 multiplicity 1
 C         1.573529        -0.176624         0.075036
 C         0.135967        -0.050298         0.056801
 C        -1.084327         0.047143        -0.084236
 C        -2.597595         0.210473         0.061344
 O        -3.082606         1.549570        -0.242353
 C        -3.187830        -0.384393         1.374167
 C        -4.750006        -0.363260         1.456777
 C        -5.407294        -1.752824         1.774846
 O        -5.458115         0.581993         1.127407
 H         1.998030         0.101067         0.997106
 H         1.839213        -1.203833        -0.097895
 H         2.052581         0.299568        -0.786489
 H        -2.937811        -0.402764        -0.800244
 H        -2.568246         2.142867         0.459959
 H        -2.829653        -1.328041         1.601122
 H        -2.788880         0.268122         2.228803
 H        -5.157181        -2.195468         2.699929
 H        -6.458850        -1.612729         1.556801
 H        -4.990535        -2.322287         0.927457
