19
Iteration:  1792
 C         0.514400        -1.311997        -0.149426
 C        -0.623640        -0.440065         0.198900
 C        -1.518062         0.396381         0.282271
 C        -2.691951         1.285522         0.298740
 O        -2.463458         2.624098         0.621033
 C        -3.866484         0.712760         1.196942
 C        -4.311146        -0.775659         0.943981
 C        -4.342199        -1.637391         2.223360
 O        -4.815117        -1.169322        -0.082442
 H         1.053440        -0.610273        -0.750049
 H         1.130588        -1.557657         0.702065
 H         0.272824        -2.192733        -0.719709
 H        -3.157059         1.289148        -0.726078
 H        -1.957934         2.549246         1.410015
 H        -3.771960         0.714509         2.255779
 H        -4.596433         1.438713         0.978163
 H        -3.248001        -1.694132         2.468739
 H        -4.793449        -1.103950         3.100398
 H        -4.677237        -2.676793         2.229839
