19
Iteration:  3505
 C         0.330714        -1.509744        -0.185660
 C        -0.672581        -0.480955        -0.010667
 C        -1.659748         0.253504        -0.150124
 C        -2.824630         1.077804         0.060246
 O        -2.526396         2.502271         0.235308
 C        -3.441886         0.701085         1.428724
 C        -4.296553        -0.466829         1.309621
 C        -4.385666        -1.370093         2.598147
 O        -4.693755        -0.962951         0.280452
 H        -0.198067        -2.485686        -0.378253
 H         0.825248        -1.318374        -1.173220
 H         1.093598        -1.585344         0.580064
 H        -3.637057         0.864739        -0.708015
 H        -1.797944         2.651729        -0.312623
 H        -2.616012         0.431630         2.078543
 H        -4.042701         1.472707         1.904674
 H        -3.319091        -1.395555         2.995077
 H        -5.018907        -1.182124         3.542705
 H        -4.635789        -2.344364         2.121045
