19
Iteration:  1594
 C         0.696914        -1.216848        -0.027773
 C        -0.436435        -0.304273         0.070350
 C        -1.469671         0.398646         0.137299
 C        -2.675954         1.250363         0.186412
 O        -2.622646         2.703549         0.767046
 C        -3.739944         0.565135         1.199184
 C        -4.395409        -0.852050         0.997547
 C        -4.741502        -1.622883         2.292771
 O        -4.682881        -1.254262        -0.109378
 H         1.133570        -0.811153        -0.937876
 H         1.412226        -1.102249         0.815974
 H         0.357465        -2.294261        -0.186847
 H        -3.298606         1.250871        -0.808052
 H        -1.678745         2.905232         0.400012
 H        -3.237298         0.555622         2.185524
 H        -4.545851         1.295244         1.358935
 H        -5.788757        -1.708817         2.665333
 H        -4.411943        -2.643703         2.197184
 H        -4.177943        -1.067010         3.024914
