19
Iteration:  1319charge 0 multiplicity 1
 C         1.106396        -0.695087        -0.132155
 C        -0.232643        -0.227810         0.097170
 C        -1.224002         0.435712         0.179805
 C        -2.687137         0.808085         0.288935
 O        -2.848961         2.187924         0.324841
 C        -3.295553         0.202103         1.575248
 C        -4.502065        -0.640894         1.115481
 C        -5.425146        -1.287479         2.235121
 O        -4.730683        -1.053019        -0.046496
 H         1.278153        -0.202841        -1.082580
 H         1.716821        -0.479335         0.768968
 H         1.084764        -1.828478        -0.265678
 H        -3.001506         0.315347        -0.603217
 H        -3.808118         2.454041         0.257328
 H        -2.603240        -0.427571         2.172066
 H        -3.578809         1.145760         2.111729
 H        -5.734355        -2.171251         1.748427
 H        -4.914342        -1.334701         3.226574
 H        -6.304194        -0.587751         2.399092
