19
Iteration:   221charge 0 multiplicity 1
 C         1.534617        -0.245642         0.075409
 C         0.088385         0.010424         0.009838
 C        -1.117684         0.072843        -0.033664
 C        -2.542028         0.232546         0.012998
 O        -3.052196         1.507038        -0.117142
 C        -3.212250        -0.323622         1.407960
 C        -4.768780        -0.368592         1.451825
 C        -5.308562        -1.745025         1.722263
 O        -5.477800         0.551966         1.066251
 H         2.013871         0.067990         0.951730
 H         1.621216        -1.305194        -0.000249
 H         2.037821         0.304356        -0.727595
 H        -3.052164        -0.360959        -0.814675
 H        -2.283335         2.150953        -0.219063
 H        -2.855963        -1.266979         1.581943
 H        -2.750718         0.416691         2.154913
 H        -5.023625        -2.120493         2.666681
 H        -6.373426        -1.612043         1.944344
 H        -5.241029        -2.600003         1.043310
