19
Iteration:   736
 C         1.279043        -0.361982        -0.407517
 C        -0.038820         0.138676        -0.148240
 C        -1.188125         0.241648         0.190640
 C        -2.594095         0.549518         0.413032
 O        -2.684268         1.882118         0.903768
 C        -3.245617        -0.417792         1.445684
 C        -4.662036        -0.718089         1.062009
 C        -5.721622        -0.147862         1.985383
 O        -4.984727        -1.393374         0.048486
 H         2.017088         0.481928        -0.468843
 H         1.479493        -1.062636         0.424174
 H         1.316323        -0.854783        -1.381684
 H        -3.153397         0.241005        -0.502209
 H        -3.630799         1.869390         1.368403
 H        -2.608443        -1.302378         1.363804
 H        -3.104587        -0.035300         2.521796
 H        -5.411341         0.722177         2.557794
 H        -6.642071        -0.030929         1.424599
 H        -5.767884        -1.104496         2.482351
