19
Iteration:  4812charge 0 multiplicity 1
 C         0.604810        -1.077803        -0.613820
 C        -0.718812        -0.491159        -0.476804
 C        -1.719004         0.215900        -0.397064
 C        -2.793139         1.009569         0.161166
 O        -2.440597         2.377919         0.372126
 C        -3.091933         0.269664         1.625852
 C        -4.334294        -0.694068         1.517753
 C        -5.373853        -0.627149         2.596986
 O        -4.333553        -1.381414         0.549374
 H         1.295073        -0.581413         0.082427
 H         0.609863        -2.166462        -0.429484
 H         1.087903        -0.851812        -1.565874
 H        -3.746081         1.027028        -0.490939
 H        -1.524875         2.318253         0.786956
 H        -2.161750        -0.078542         2.178695
 H        -3.441990         1.035078         2.348083
 H        -4.988121        -0.477984         3.644281
 H        -5.884220         0.297848         2.571622
 H        -6.001504        -1.564925         2.665031
