19
Iteration:  1834
 C         0.555345        -1.220582        -0.082709
 C        -0.646739        -0.414293         0.040926
 C        -1.632923         0.298536         0.284150
 C        -2.736683         1.185906         0.339067
 O        -2.345685         2.505966         0.670454
 C        -3.940299         0.781248         1.101707
 C        -4.384159        -0.745386         0.966627
 C        -4.126925        -1.615176         2.249157
 O        -4.914040        -1.105045        -0.073688
 H         1.336532        -0.651971        -0.550969
 H         0.956042        -1.517276         0.910792
 H         0.481184        -2.229954        -0.599906
 H        -2.993914         1.316265        -0.721085
 H        -1.854904         2.631425         1.562648
 H        -3.757375         1.263330         2.077646
 H        -4.884213         1.192453         0.699580
 H        -3.692039        -1.043826         3.150988
 H        -5.164486        -1.865400         2.654260
 H        -3.597776        -2.569129         1.983840
