19
Iteration:   603charge 0 multiplicity 1
 C         1.167004        -0.461678        -0.630996
 C        -0.091901        -0.022703        -0.155766
 C        -1.203759         0.186500         0.235976
 C        -2.544543         0.652059         0.510227
 O        -2.594074         2.063245         0.836055
 C        -3.334401        -0.152795         1.596455
 C        -4.666539        -0.660265         1.148807
 C        -5.888254        -0.596058         1.873274
 O        -4.750087        -1.258240         0.075262
 H         2.016640         0.187435        -0.378384
 H         1.473685        -1.429578        -0.192552
 H         1.205357        -0.599887        -1.752156
 H        -3.213684         0.377210        -0.327626
 H        -2.674460         2.071345         1.766517
 H        -2.864672        -1.103985         1.862584
 H        -3.406136         0.408483         2.615756
 H        -6.484087         0.268710         1.756144
 H        -6.341826        -1.557540         1.701108
 H        -5.712015        -0.678106         2.947886
