19
Iteration:  4055charge 0 multiplicity 1
 C         0.797303        -1.303417         0.105097
 C        -0.436369        -0.490150         0.116751
 C        -1.371763         0.267487         0.348285
 C        -2.728079         0.899464         0.260827
 O        -2.451832         2.156926        -0.432097
 C        -3.654226         0.830056         1.405424
 C        -4.618388        -0.487478         1.269272
 C        -3.775945        -1.696466         1.488608
 O        -5.787664        -0.452340         1.130679
 H         1.460216        -1.296031        -0.745927
 H         1.479597        -1.033425         0.947998
 H         0.665596        -2.359569         0.389811
 H        -3.426622         0.152123        -0.413121
 H        -3.113701         2.829859        -0.235182
 H        -3.074911         0.667010         2.341330
 H        -4.240078         1.757121         1.444057
 H        -3.057347        -1.808522         0.772568
 H        -3.294102        -1.633125         2.423105
 H        -4.421917        -2.581646         1.490949
