19
Iteration:  3264
 C         0.485759        -1.258069        -0.799807
 C        -0.613415        -0.533279        -0.316366
 C        -1.461186         0.234876         0.158625
 C        -2.721031         0.982576         0.355866
 O        -2.573938         2.404511         0.229250
 C        -3.406783         0.611933         1.670759
 C        -4.332945        -0.608283         1.472217
 C        -5.276767        -0.996742         2.541864
 O        -4.188619        -1.171100         0.361237
 H         0.612030        -2.194073        -0.215486
 H         0.407487        -1.646319        -1.862637
 H         1.534042        -0.809880        -0.741444
 H        -3.436244         0.484742        -0.441422
 H        -2.052073         2.642835        -0.578110
 H        -2.725246         0.383163         2.522201
 H        -4.050866         1.566184         1.873630
 H        -4.623919        -1.505916         3.248955
 H        -5.621709        -0.137868         3.123487
 H        -6.173099        -1.537447         2.142964
