19
Iteration:  3817charge 0 multiplicity 1
 C         0.262319        -1.573111        -0.149708
 C        -0.544281        -0.426947         0.251893
 C        -1.458322         0.309541         0.551482
 C        -2.745586         0.964948         0.236693
 O        -2.444346         2.308792        -0.255387
 C        -3.743334         0.962737         1.388461
 C        -4.391824        -0.446494         1.301060
 C        -3.525805        -1.564593         1.829995
 O        -5.400432        -0.762158         0.707091
 H        -0.013876        -2.043722        -1.057459
 H         1.305289        -1.250650        -0.046343
 H         0.006591        -2.303688         0.687232
 H        -3.099006         0.313940        -0.714986
 H        -3.237095         2.498489        -0.816961
 H        -3.267280         1.324477         2.346906
 H        -4.616747         1.603354         1.148994
 H        -2.769781        -1.775672         0.978488
 H        -3.037521        -1.260883         2.791853
 H        -4.277146        -2.366318         2.064192
