19
Iteration:  4893
 C         0.656696        -1.186280        -1.184291
 C        -0.251007        -0.274634        -0.455151
 C        -1.212013         0.218350         0.148376
 C        -2.583767         0.828775         0.326445
 O        -2.454663         2.368185         0.280420
 C        -3.589121         0.641303         1.625269
 C        -4.454284        -0.571529         1.542132
 C        -5.668952        -0.768869         2.614389
 O        -4.444480        -1.486708         0.732968
 H         1.706837        -1.482509        -0.735264
 H         0.253962        -2.201341        -1.260847
 H         0.796863        -0.911566        -2.251313
 H        -3.208629         0.553737        -0.460890
 H        -1.559732         2.321700        -0.071103
 H        -2.855826         0.466311         2.427899
 H        -4.213535         1.472790         1.911198
 H        -5.050997        -0.850542         3.466445
 H        -6.559353        -0.181494         2.484703
 H        -5.939374        -1.766413         2.401221
