19
Iteration:  4061charge 0 multiplicity 1
 C         0.779419        -1.327768         0.104406
 C        -0.372281        -0.435590         0.151509
 C        -1.356430         0.273303         0.382638
 C        -2.724849         0.865873         0.232310
 O        -2.485807         2.161264        -0.444115
 C        -3.648871         0.815583         1.400083
 C        -4.606916        -0.460851         1.295030
 C        -3.806970        -1.714886         1.483357
 O        -5.798426        -0.443967         1.126481
 H         1.367866        -1.264071        -0.870676
 H         1.556659        -1.129362         0.848677
 H         0.597831        -2.403815         0.262095
 H        -3.046686         0.299431        -0.591347
 H        -3.218879         2.702324        -0.211995
 H        -3.037573         0.668217         2.288389
 H        -4.294378         1.686013         1.546021
 H        -2.971576        -1.892635         0.683257
 H        -3.359919        -1.557332         2.529965
 H        -4.509102        -2.571091         1.532367
