19
Iteration:  4056
 C         0.792683        -1.305190         0.100797
 C        -0.424794        -0.480576         0.121861
 C        -1.368193         0.270195         0.355097
 C        -2.730500         0.895201         0.263437
 O        -2.455176         2.156356        -0.436129
 C        -3.649642         0.827366         1.400207
 C        -4.628811        -0.485273         1.272066
 C        -3.780725        -1.698368         1.487929
 O        -5.782318        -0.451374         1.130986
 H         1.443761        -1.296876        -0.739438
 H         1.509936        -1.065512         0.935370
 H         0.670028        -2.393486         0.381809
 H        -3.381873         0.158291        -0.441881
 H        -3.162264         2.838572        -0.222309
 H        -3.059356         0.656748         2.324917
 H        -4.257132         1.755213         1.461416
 H        -3.039457        -1.828738         0.749661
 H        -3.315609        -1.617417         2.439966
 H        -4.433130        -2.565268         1.500219
