19
Iteration:  2118charge 0 multiplicity 1
 C         0.498624        -1.155328         0.367120
 C        -0.726348        -0.492283         0.166712
 C        -1.690513         0.159062         0.079836
 C        -2.762960         1.103247         0.118239
 O        -2.317572         2.467371         0.370340
 C        -3.778662         0.797499         1.189454
 C        -4.380196        -0.640995         1.043481
 C        -3.600306        -1.883862         1.642287
 O        -5.512101        -0.694794         0.555322
 H         1.226259        -0.340533         0.651102
 H         0.489870        -1.946774         1.160771
 H         0.918134        -1.599632        -0.569681
 H        -3.236078         0.972943        -0.932330
 H        -1.296487         2.296405         0.365094
 H        -3.061569         0.853436         2.070682
 H        -4.592153         1.551723         1.239191
 H        -2.577324        -1.711355         1.751472
 H        -3.837623        -2.135200         2.647080
 H        -3.781660        -2.751681         1.040828
