19
Iteration:  4039
 C         0.766118        -1.203163         0.217046
 C        -0.538243        -0.623042         0.045365
 C        -1.469195         0.133098         0.211266
 C        -2.717185         0.891473         0.143627
 O        -2.362620         2.178142        -0.361086
 C        -3.729646         0.865216         1.493192
 C        -4.589396        -0.418095         1.348270
 C        -3.707212        -1.734773         1.474666
 O        -5.732483        -0.456189         1.117156
 H         1.339716        -1.116706        -0.749397
 H         1.376689        -0.674083         0.976447
 H         0.776426        -2.286027         0.482152
 H        -3.185545         0.440757        -0.727225
 H        -3.125715         2.788504        -0.058708
 H        -3.257183         0.982061         2.469543
 H        -4.518684         1.628495         1.359891
 H        -2.909635        -1.723015         0.618176
 H        -3.130877        -1.691752         2.472341
 H        -4.329517        -2.633870         1.384736
