19
Iteration:   649
 C         1.212022        -0.358210        -0.634440
 C        -0.124753        -0.117071        -0.104491
 C        -1.239969         0.148783         0.262587
 C        -2.579708         0.641562         0.535638
 O        -2.572165         2.044534         0.970156
 C        -3.305261        -0.201551         1.578741
 C        -4.689542        -0.745727         1.047049
 C        -5.803163        -0.444182         1.931303
 O        -4.776619        -1.363969         0.010884
 H         1.989471         0.455483        -0.486369
 H         1.635483        -1.281821        -0.164931
 H         1.201681        -0.549339        -1.725817
 H        -3.157635         0.512129        -0.422116
 H        -3.250468         2.466013         0.507921
 H        -2.676651        -1.045460         1.887652
 H        -3.568217         0.342101         2.555867
 H        -6.000197         0.586283         1.563085
 H        -6.739874        -0.975920         1.747806
 H        -5.742927        -0.334457         2.971724
