19
Iteration:  4136charge 0 multiplicity 1
 C         0.857538        -1.241521         0.214177
 C        -0.331804        -0.418379         0.142927
 C        -1.322927         0.306804         0.267272
 C        -2.645051         0.922498        -0.006573
 O        -2.682699         2.312006        -0.395885
 C        -3.453642         0.588324         1.390365
 C        -4.593948        -0.502119         1.373694
 C        -4.131427        -1.942468         1.619511
 O        -5.715183        -0.284670         1.168814
 H         1.421725        -0.921348        -0.702329
 H         1.591600        -1.095062         1.024501
 H         0.789897        -2.324254        -0.104214
 H        -3.334785         0.247149        -0.828394
 H        -2.307232         2.259382        -1.349372
 H        -2.770292         0.188610         2.177165
 H        -3.856232         1.526781         1.840861
 H        -3.212771        -2.131116         0.961065
 H        -3.803804        -1.945943         2.682021
 H        -5.007797        -2.582936         1.449437
