19
Iteration:  3830
 C         0.240425        -1.490841        -0.049708
 C        -0.702170        -0.417111         0.178683
 C        -1.513342         0.347333         0.639152
 C        -2.718285         1.009553         0.219027
 O        -2.411970         2.213137        -0.291838
 C        -3.734790         1.002785         1.302258
 C        -4.271309        -0.480056         1.326664
 C        -3.537624        -1.695228         1.819617
 O        -5.403544        -0.678386         0.742212
 H         0.077232        -1.825984        -1.064958
 H         1.334172        -1.306334        -0.077088
 H         0.164660        -2.405508         0.637515
 H        -3.254066         0.332948        -0.609376
 H        -3.178264         2.703092        -0.666811
 H        -3.222143         1.243963         2.272476
 H        -4.519008         1.794442         1.079128
 H        -2.854436        -2.045033         1.001048
 H        -2.817952        -1.544372         2.583702
 H        -4.125701        -2.619283         1.939742
