19
Iteration:  2306charge 0 multiplicity 1
 C         0.749750        -1.169130         0.118446
 C        -0.452301        -0.331359         0.198829
 C        -1.662414         0.065727         0.138692
 C        -2.812628         1.002092         0.255063
 O        -2.520567         2.357432        -0.001389
 C        -3.675476         0.712750         1.479064
 C        -4.451993        -0.612931         1.228776
 C        -3.894076        -1.878600         1.827622
 O        -5.408235        -0.478850         0.432396
 H         1.672121        -0.947603         0.754735
 H         0.371020        -2.162207         0.353982
 H         1.018858        -1.194912        -0.944237
 H        -3.446689         0.678400        -0.552063
 H        -1.689745         2.456012         0.591875
 H        -3.232085         0.826966         2.527876
 H        -4.406508         1.539121         1.377146
 H        -4.008351        -2.411250         0.868508
 H        -2.812891        -1.759352         2.007645
 H        -4.515258        -2.341310         2.671866
