19
Iteration:  2248
 C         0.812099        -1.115570        -0.031553
 C        -0.443556        -0.541544         0.263719
 C        -1.472094         0.149310         0.430900
 C        -2.603675         1.011484         0.185372
 O        -2.421501         2.427926         0.101046
 C        -3.811381         0.798985         1.273325
 C        -4.593367        -0.638795         1.176597
 C        -3.919771        -1.834416         1.787477
 O        -5.673258        -0.673271         0.513468
 H         1.571903        -0.572461         0.449872
 H         1.044617        -2.183673         0.069185
 H         0.850428        -0.912766        -1.123030
 H        -3.068704         0.720431        -0.747543
 H        -1.689556         2.619646         0.699237
 H        -3.374707         0.976415         2.260214
 H        -4.528129         1.621235         1.078131
 H        -4.699401        -2.509376         2.278215
 H        -3.192957        -2.313755         1.044399
 H        -3.323392        -1.282102         2.650149
