19
Iteration:  3607charge 0 multiplicity 1
 C         0.379202        -1.470072        -0.305946
 C        -0.618533        -0.491554         0.052483
 C        -1.655920         0.111390         0.191352
 C        -2.795634         1.050072         0.177949
 O        -2.472757         2.489095         0.040599
 C        -3.709846         0.858764         1.417801
 C        -4.282400        -0.589955         1.228836
 C        -4.058806        -1.412622         2.576009
 O        -4.940574        -0.860319         0.278538
 H        -0.061546        -2.449407        -0.719694
 H         1.133383        -1.034973        -0.997116
 H         1.010604        -1.901005         0.525500
 H        -3.495576         0.738389        -0.660318
 H        -1.451158         2.441533        -0.050548
 H        -3.191528         1.058583         2.380651
 H        -4.595040         1.541869         1.266333
 H        -3.153991        -2.046925         2.402770
 H        -3.992476        -0.806884         3.549990
 H        -4.966419        -2.079306         2.639317
