19
Iteration:  4976
 C         0.713233        -0.856263        -0.892368
 C        -0.676258        -0.606516        -0.345285
 C        -1.790528        -0.098973        -0.158691
 C        -2.803055         0.928274         0.250797
 O        -2.280398         2.275405         0.276280
 C        -3.379238         0.577888         1.610070
 C        -4.368103        -0.539635         1.523375
 C        -5.453338        -0.704916         2.660828
 O        -4.201871        -1.438994         0.645848
 H         1.392846        -0.782072        -0.078735
 H         0.730056        -1.808491        -1.416946
 H         1.018347        -0.031164        -1.522783
 H        -3.535125         0.902543        -0.556433
 H        -1.528836         2.334724        -0.321515
 H        -2.690159         0.314387         2.455016
 H        -3.877107         1.511183         1.859852
 H        -4.959984        -0.582694         3.665417
 H        -6.097184         0.167266         2.610412
 H        -5.896702        -1.658273         2.290325
