19
Iteration:  4591charge 0 multiplicity 1
 C         0.316183        -1.464415        -0.364368
 C        -0.791087        -0.657431         0.070239
 C        -1.649967         0.188565         0.129629
 C        -2.751189         1.104769         0.178064
 O        -2.488140         2.601000         0.020448
 C        -3.605426         0.818357         1.397401
 C        -4.222778        -0.597951         1.342395
 C        -4.185557        -1.453327         2.615508
 O        -4.753633        -0.932987         0.223656
 H         1.315145        -1.070234        -0.170891
 H         0.183553        -2.519448         0.045757
 H         0.133884        -1.585707        -1.517105
 H        -3.393126         0.871680        -0.625766
 H        -1.963216         2.740475         0.843487
 H        -3.028923         0.860617         2.323405
 H        -4.350779         1.665716         1.394931
 H        -3.123706        -1.459534         2.918664
 H        -4.721072        -0.882200         3.422637
 H        -4.776541        -2.382680         2.530743
