19
Iteration:  4858charge 0 multiplicity 1
 C         0.631559        -1.163197        -0.977623
 C        -0.426567        -0.399017        -0.404569
 C        -1.388788         0.284621        -0.043648
 C        -2.678406         0.866898         0.294505
 O        -2.517765         2.369123         0.374258
 C        -3.392253         0.461611         1.581018
 C        -4.333593        -0.686670         1.512724
 C        -5.461644        -0.574564         2.599287
 O        -4.446978        -1.522720         0.570684
 H         1.635347        -1.035350        -0.466434
 H         0.261198        -2.188337        -0.973346
 H         0.751305        -0.827145        -1.988398
 H        -3.308875         0.703366        -0.586988
 H        -1.620861         2.659159         0.423698
 H        -2.682959         0.243655         2.442870
 H        -3.978575         1.268800         1.941980
 H        -5.123070        -0.390049         3.617174
 H        -6.145979         0.222662         2.578711
 H        -6.004675        -1.518313         2.670299
