19
Iteration:  2170
 C         0.758629        -1.093596         0.231909
 C        -0.491462        -0.393637         0.089546
 C        -1.586397         0.188183         0.015367
 C        -2.692816         1.098597         0.104688
 O        -2.146515         2.395413         0.386385
 C        -3.871866         0.709883         1.119787
 C        -4.598982        -0.647864         1.143562
 C        -3.820463        -1.734664         1.753737
 O        -5.737465        -0.821678         0.631170
 H         1.468487        -0.556322         0.789368
 H         0.658981        -2.015503         0.825729
 H         1.086827        -1.524415        -0.714823
 H        -3.219500         1.077387        -0.861960
 H        -1.401212         2.099280         1.048438
 H        -3.659267         1.023766         2.133079
 H        -4.659023         1.395175         0.771304
 H        -3.429619        -1.266221         2.701415
 H        -4.339025        -2.715101         2.037574
 H        -3.025803        -2.027064         1.005350
