19
Iteration:  2620charge 0 multiplicity 1
 C         0.120826        -1.557460        -0.036667
 C        -0.734097        -0.376701        -0.163961
 C        -1.748866         0.347569        -0.042993
 C        -2.771805         1.312241         0.151702
 O        -2.244519         2.595335         0.331254
 C        -3.752079         0.717108         1.283941
 C        -4.267166        -0.616326         1.283053
 C        -3.977481        -1.596133         2.383418
 O        -4.826682        -1.084456         0.248433
 H         0.576324        -1.556697         1.005116
 H        -0.334980        -2.606881        -0.112760
 H         1.056315        -1.497466        -0.712758
 H        -3.490743         1.553217        -0.723418
 H        -1.542047         2.607872         0.925085
 H        -3.482028         1.097687         2.354263
 H        -4.609175         1.353776         1.091812
 H        -3.259876        -2.389070         2.126700
 H        -3.595587        -1.191078         3.269145
 H        -4.880565        -2.114709         2.697527
