19
Iteration:  1593
 C         0.702299        -1.213368        -0.032293
 C        -0.442321        -0.306507         0.079545
 C        -1.465931         0.399333         0.139210
 C        -2.675356         1.255121         0.187130
 O        -2.620127         2.686483         0.763491
 C        -3.749881         0.560397         1.202434
 C        -4.391151        -0.845052         0.996717
 C        -4.743290        -1.618925         2.296592
 O        -4.682947        -1.252438        -0.116611
 H         1.111125        -0.805017        -0.921911
 H         1.432835        -1.083140         0.793836
 H         0.353903        -2.281568        -0.215430
 H        -3.284587         1.268122        -0.828452
 H        -1.669308         2.957742         0.393191
 H        -3.240947         0.548763         2.178983
 H        -4.562342         1.269303         1.360587
 H        -5.779583        -1.691745         2.704487
 H        -4.418686        -2.658583         2.191622
 H        -4.173987        -1.055964         3.068013
