19
Iteration:  1431charge 0 multiplicity 1
 C         0.852043        -0.894176         0.010170
 C        -0.408895        -0.209788         0.023803
 C        -1.451969         0.457131         0.051934
 C        -2.791224         0.982718         0.239996
 O        -2.719297         2.474315         0.521159
 C        -3.439816         0.285203         1.352377
 C        -4.356397        -0.854345         1.103836
 C        -5.147058        -1.355117         2.248564
 O        -4.586324        -1.209502        -0.075275
 H         1.452833        -0.589442        -0.863975
 H         1.516245        -0.654375         0.890750
 H         0.774776        -2.036552        -0.029343
 H        -3.402161         0.882363        -0.646677
 H        -1.800215         2.608804         0.916097
 H        -2.674590         0.092532         2.131401
 H        -4.066259         1.079826         1.866120
 H        -4.618406        -1.624424         3.203064
 H        -5.847311        -0.601207         2.655770
 H        -5.791980        -2.155712         1.869621
