19
Iteration:    63charge 0 multiplicity 1
 C         1.490347         0.228731         0.054051
 C         0.068287        -0.055600         0.047560
 C        -1.162094        -0.168503        -0.013913
 C        -2.653753        -0.182223         0.020708
 O        -3.108401         1.080389        -0.639801
 C        -3.157170        -0.491358         1.517360
 C        -4.633903        -0.212239         1.610143
 C        -5.473385        -1.454624         1.194318
 O        -5.170034         0.866424         1.844758
 H         1.734255         0.527049         1.113910
 H         2.251820        -0.520825        -0.208827
 H         1.590191         1.185284        -0.440844
 H        -3.106724        -1.046768        -0.530120
 H        -3.374120         1.660794         0.158973
 H        -3.089776        -1.633376         1.694752
 H        -2.678067         0.113266         2.253588
 H        -5.109448        -2.476182         1.534250
 H        -6.498000        -1.094153         1.408910
 H        -5.292565        -1.632321         0.114224
