19
Iteration:  1914charge 0 multiplicity 1
 C         0.539263        -1.170876         0.169987
 C        -0.897171        -0.613826         0.120788
 C        -1.757734         0.229092         0.168930
 C        -2.850353         1.177026         0.244751
 O        -2.292637         2.523864         0.605107
 C        -3.906742         0.773718         1.224126
 C        -4.251588        -0.667536         0.889267
 C        -3.831044        -1.700115         2.072641
 O        -5.041438        -0.923392        -0.009628
 H         1.270401        -0.373324        -0.063169
 H         0.778882        -1.524296         1.159943
 H         0.594030        -1.970092        -0.517374
 H        -3.346110         1.316458        -0.763469
 H        -1.264879         2.463796         0.464770
 H        -3.539312         0.898390         2.233921
 H        -4.885749         1.176478         1.109074
 H        -4.582412        -1.460240         2.888667
 H        -3.648868        -2.844876         2.122281
 H        -2.854540        -1.431042         2.654131
