19
Iteration:  1966
 C         0.360208        -1.393946         0.270950
 C        -0.562902        -0.335771         0.191573
 C        -1.604688         0.310709         0.122296
 C        -2.785385         1.185556         0.206994
 O        -2.491029         2.542958         0.438214
 C        -3.820885         0.711934         1.354360
 C        -4.308742        -0.653641         1.033763
 C        -3.763799        -1.817987         1.862472
 O        -5.113031        -0.810198         0.128621
 H         1.416952        -1.072463         0.266807
 H         0.210664        -1.882772         1.251753
 H         0.126877        -2.110783        -0.521517
 H        -3.415175         1.103568        -0.649769
 H        -2.119091         2.776933        -0.497562
 H        -3.378281         0.767649         2.348653
 H        -4.722836         1.310029         1.281329
 H        -4.592752        -2.376738         2.215137
 H        -3.058753        -2.504542         1.457870
 H        -3.251351        -1.613643         2.780476
