19
Iteration:   244charge 0 multiplicity 1
 C         1.436160        -0.322324         0.055603
 C         0.024536         0.021920        -0.043540
 C        -1.181989         0.090034         0.102388
 C        -2.622340         0.242146         0.149532
 O        -2.880561         1.660519        -0.037199
 C        -3.226608        -0.296702         1.365193
 C        -4.734610        -0.452256         1.248362
 C        -5.175453        -1.739858         1.820074
 O        -5.476376         0.494514         0.990933
 H         1.903757        -0.031805         0.959094
 H         1.386141        -1.395711         0.048837
 H         2.056933         0.099726        -0.728683
 H        -3.091832        -0.320473        -0.736624
 H        -3.243997         1.675211        -0.981583
 H        -2.668782        -1.082268         1.792976
 H        -3.088964         0.663238         1.966134
 H        -4.653475        -2.280140         2.538113
 H        -6.221348        -1.753874         2.136529
 H        -5.197709        -2.351770         0.905609
