19
Iteration:  4698
 C         0.582751        -1.303590        -0.701772
 C        -0.624461        -0.618382        -0.169830
 C        -1.588276         0.148258        -0.067035
 C        -2.737575         1.055239         0.096468
 O        -2.360962         2.481678         0.456712
 C        -3.658616         0.714041         1.319624
 C        -4.384169        -0.607580         1.451092
 C        -4.915534        -1.073035         2.767078
 O        -4.488511        -1.220137         0.446162
 H         1.470950        -0.906848        -0.304226
 H         0.644262        -2.369066        -0.541800
 H         0.664453        -1.126830        -1.771244
 H        -3.253083         0.958240        -0.927109
 H        -1.987130         2.689721        -0.401505
 H        -2.865547         0.940581         2.056371
 H        -4.450774         1.518009         1.460556
 H        -4.052838        -1.179127         3.401267
 H        -5.570530        -0.264263         3.136502
 H        -5.355534        -2.054662         2.622590
