19
Iteration:  2114charge 0 multiplicity 1
 C         0.489986        -1.167787         0.388093
 C        -0.700413        -0.502459         0.170312
 C        -1.695630         0.186895         0.080036
 C        -2.752461         1.121889         0.108686
 O        -2.316632         2.466046         0.345923
 C        -3.804581         0.801148         1.225424
 C        -4.367705        -0.615829         1.062572
 C        -3.588594        -1.908258         1.618944
 O        -5.511976        -0.694442         0.533747
 H         1.262793        -0.458792         0.558156
 H         0.386846        -1.943753         1.129076
 H         0.841077        -1.556962        -0.566404
 H        -3.362540         0.923325        -0.739100
 H        -1.373731         2.314527         0.291573
 H        -3.197030         0.717589         2.113117
 H        -4.568159         1.574812         1.299081
 H        -2.441468        -1.781322         1.665411
 H        -3.830395        -2.028769         2.738001
 H        -3.732701        -2.892613         1.105996
