19
Iteration:  1880charge 0 multiplicity 1
 C         0.534035        -1.121110         0.055429
 C        -0.706197        -0.410496         0.183884
 C        -1.814332         0.155050         0.144805
 C        -2.843117         1.167868         0.252634
 O        -2.205342         2.446730         0.660622
 C        -3.976074         0.859458         1.183770
 C        -4.452281        -0.569966         0.976242
 C        -3.949894        -1.653998         2.097759
 O        -4.900337        -1.146216         0.000152
 H         1.405560        -0.644820        -0.427702
 H         0.829145        -1.648837         0.940605
 H         0.257397        -1.944507        -0.572432
 H        -3.292345         1.208802        -0.776411
 H        -1.377814         2.092774         1.065521
 H        -3.715919         0.895035         2.229944
 H        -4.682550         1.614113         0.964455
 H        -4.106830        -1.208874         3.088099
 H        -4.503126        -2.640353         1.935070
 H        -2.908758        -1.469096         1.757093
