19
Iteration:  2070charge 0 multiplicity 1
 C         0.411176        -1.391874         0.369122
 C        -0.616279        -0.360469         0.230447
 C        -1.638899         0.316885         0.209064
 C        -2.739836         1.115999         0.151575
 O        -2.552267         2.507010         0.195163
 C        -3.669161         0.772702         1.467971
 C        -4.409583        -0.639140         1.148689
 C        -3.612564        -1.855416         1.568043
 O        -5.357047        -0.725189         0.345437
 H         1.433253        -1.127549         0.529870
 H        -0.005000        -2.006166         1.158982
 H         0.523783        -2.033314        -0.506182
 H        -3.346451         0.974078        -0.756078
 H        -1.654771         2.766806        -0.046762
 H        -3.009572         0.729007         2.340811
 H        -4.314180         1.659351         1.431241
 H        -2.746805        -2.218961         0.855015
 H        -2.937791        -1.868388         2.506431
 H        -4.395628        -2.682458         1.614834
