19
Iteration:  3862
 C         0.448263        -1.489559         0.059371
 C        -0.706208        -0.578100         0.350474
 C        -1.591964         0.270246         0.294553
 C        -2.794574         1.136151         0.131967
 O        -2.368503         2.372425        -0.369737
 C        -3.709271         0.938819         1.389497
 C        -4.336927        -0.561679         1.318012
 C        -3.581640        -1.780815         1.750287
 O        -5.434505        -0.637406         0.884277
 H         0.377681        -1.718998        -0.976587
 H         1.422107        -1.008621         0.245094
 H         0.444955        -2.494546         0.569625
 H        -3.407773         0.685309        -0.775039
 H        -3.126746         3.030553        -0.339878
 H        -3.212564         1.127259         2.372437
 H        -4.476634         1.718149         1.262382
 H        -3.140224        -2.126036         0.774934
 H        -2.758498        -1.512129         2.400783
 H        -4.296563        -2.484102         2.229585
