19
Iteration:  2942
 C         0.689156        -1.134122        -0.488823
 C        -0.656885        -0.614833        -0.229423
 C        -1.464915         0.275157        -0.129723
 C        -2.675604         1.067833         0.174600
 O        -2.416805         2.516518         0.263366
 C        -3.289399         0.452663         1.399777
 C        -4.354722        -0.750002         1.385150
 C        -5.024980        -1.180668         2.754125
 O        -4.918371        -1.059093         0.336094
 H         1.222471        -1.704612         0.318771
 H         0.609628        -1.668403        -1.457019
 H         1.343851        -0.285517        -0.816438
 H        -3.512257         0.941050        -0.620828
 H        -1.411376         2.579732         0.462262
 H        -2.536900         0.208026         2.204812
 H        -3.803746         1.285062         1.940533
 H        -4.960617        -0.454606         3.514316
 H        -6.054377        -1.495844         2.669683
 H        -4.479051        -1.938079         3.305049
