19
Iteration:  1636
 C         0.427122        -1.220276         0.126373
 C        -0.571363        -0.183613        -0.086865
 C        -1.487657         0.601667         0.055813
 C        -2.828766         1.129647         0.258044
 O        -2.490109         2.595030         0.564280
 C        -3.609432         0.523163         1.366499
 C        -4.350293        -0.869310         1.050115
 C        -4.656696        -1.734732         2.219098
 O        -4.552205        -1.101301        -0.121700
 H         1.251445        -1.243253        -0.526225
 H         0.886035        -1.034273         1.118577
 H        -0.035980        -2.248510         0.081268
 H        -3.308643         1.239554        -0.762007
 H        -1.744553         2.578782         1.243002
 H        -2.992301         0.563116         2.272450
 H        -4.419976         1.235348         1.495520
 H        -5.697763        -2.168443         2.171575
 H        -3.907708        -2.541934         2.341936
 H        -4.689950        -1.045125         3.104919
