19
Iteration:   286
 C         1.449028        -0.430065        -0.004513
 C        -0.015956        -0.267481         0.136017
 C        -1.162822         0.180789         0.008564
 C        -2.616358         0.519248         0.151456
 O        -2.925691         1.871791        -0.132022
 C        -3.182325        -0.168502         1.447345
 C        -4.697608        -0.442497         1.408245
 C        -5.198969        -1.811550         1.856455
 O        -5.523334         0.188054         0.763245
 H         2.001082        -0.000278         0.804916
 H         1.765651        -1.471477        -0.079466
 H         1.782836         0.020865        -0.974661
 H        -3.021732        -0.024914        -0.739614
 H        -2.602781         2.421581         0.564071
 H        -2.649357        -0.951843         1.817348
 H        -3.222485         0.570423         2.332662
 H        -4.688719        -2.266556         2.677029
 H        -6.273969        -1.639479         2.093297
 H        -5.106957        -2.365937         0.878355
