19
Iteration:  1932
 C         0.456599        -1.236010         0.217931
 C        -0.782512        -0.556751         0.129419
 C        -1.706900         0.202207         0.101633
 C        -2.781257         1.219765         0.185236
 O        -2.411653         2.529880         0.592574
 C        -3.869568         0.771130         1.235662
 C        -4.329051        -0.664330         1.059734
 C        -3.839328        -1.723389         1.991810
 O        -4.982536        -0.914868         0.066472
 H         1.214165        -0.464404         0.062249
 H         0.647146        -1.698190         1.213201
 H         0.593074        -2.131289        -0.458051
 H        -3.287908         1.218173        -0.756431
 H        -1.497200         2.687461         0.158427
 H        -3.512240         0.993088         2.254527
 H        -4.636867         1.543534         1.109634
 H        -4.673016        -2.069325         2.566484
 H        -3.628086        -2.520491         1.281373
 H        -2.974955        -1.361025         2.479693
