19
Iteration:  3404
 C         0.376582        -1.183545        -0.331500
 C        -0.800103        -0.462023        -0.143629
 C        -1.861114         0.112764        -0.375646
 C        -2.810569         1.086488         0.062276
 O        -2.162729         2.301249         0.552075
 C        -3.645126         0.764676         1.365506
 C        -4.231088        -0.649106         1.362225
 C        -4.671338        -1.091876         2.723469
 O        -4.451586        -1.262831         0.245344
 H         0.178246        -2.194856        -0.058728
 H         0.536482        -1.108092        -1.406626
 H         1.263532        -0.735539         0.139088
 H        -3.593754         1.343504        -0.722573
 H        -1.470390         2.581684        -0.160370
 H        -2.886503         0.892723         2.172102
 H        -4.369335         1.487730         1.556756
 H        -3.780683        -1.341102         3.369661
 H        -5.224521        -0.335983         3.330100
 H        -5.365679        -1.969718         2.578234
