19
Iteration:  3408
 C         0.353745        -1.171461        -0.302241
 C        -0.830452        -0.457276        -0.145041
 C        -1.866728         0.070507        -0.374120
 C        -2.822668         1.128826         0.050485
 O        -2.113422         2.330566         0.524897
 C        -3.649855         0.736399         1.378054
 C        -4.246851        -0.643388         1.328535
 C        -4.675319        -1.138495         2.715316
 O        -4.450502        -1.257302         0.290667
 H         0.288555        -2.300591        -0.114552
 H         0.659776        -1.121257        -1.406203
 H         1.198602        -0.629346         0.156491
 H        -3.520566         1.375615        -0.696802
 H        -1.545714         2.656407        -0.126388
 H        -2.882179         0.720511         2.142483
 H        -4.392514         1.611459         1.577881
 H        -3.724913        -1.263172         3.284692
 H        -5.185713        -0.341708         3.320182
 H        -5.271370        -2.017895         2.511407
