19
Iteration:  3451
 C         0.315955        -1.182044        -0.106536
 C        -0.996142        -0.621278        -0.435123
 C        -1.845622         0.189980        -0.189636
 C        -2.758561         1.164700         0.164317
 O        -2.054648         2.447227         0.268924
 C        -3.570232         0.772966         1.490229
 C        -4.260522        -0.666574         1.335987
 C        -4.522061        -1.398707         2.604561
 O        -4.548014        -1.130509         0.299486
 H         0.241273        -2.267541         0.266806
 H         1.065447        -0.942313        -0.921939
 H         0.578365        -0.468571         0.688535
 H        -3.529658         1.208985        -0.602560
 H        -1.743774         2.524227        -0.610434
 H        -2.945312         0.841508         2.362991
 H        -4.465665         1.461202         1.694763
 H        -3.790584        -1.325896         3.469798
 H        -5.286656        -0.681993         3.117788
 H        -5.087379        -2.353521         2.570728
