19
Iteration:  2327
 C         0.698470        -1.168778         0.149982
 C        -0.612216        -0.497272         0.159945
 C        -1.571403         0.206556         0.080524
 C        -2.831120         0.940356         0.124363
 O        -2.578491         2.395612         0.081428
 C        -3.619023         0.751918         1.495110
 C        -4.356483        -0.549493         1.218515
 C        -3.913602        -1.906914         1.802791
 O        -5.363490        -0.531360         0.470778
 H         1.227100        -0.623143         0.963871
 H         0.576564        -2.160163         0.535374
 H         1.328681        -1.158444        -0.720267
 H        -3.484525         0.786316        -0.705023
 H        -1.789471         2.506925         0.528989
 H        -2.734104         0.475986         2.125493
 H        -4.139495         1.673491         1.809692
 H        -3.570156        -2.612811         1.045356
 H        -3.199204        -1.681493         2.572454
 H        -4.981387        -2.150219         2.142641
