19
Iteration:  1113charge 0 multiplicity 1
 C         1.492602        -0.032903         0.224503
 C         0.086933         0.131019         0.045131
 C        -1.149331         0.223699         0.137683
 C        -2.641122         0.216086        -0.044265
 O        -3.101729         1.610859         0.204139
 C        -3.198233        -0.655750         1.133611
 C        -4.763357        -0.590014         1.173215
 C        -5.323237        -0.830991         2.534869
 O        -5.296277        -0.398480         0.130239
 H         2.191073         0.477269        -0.379537
 H         1.679332         0.149147         1.298160
 H         1.774473        -1.118406         0.152883
 H        -2.983889        -0.171773        -1.024830
 H        -2.629335         2.242950        -0.460591
 H        -2.788667        -1.641669         1.258255
 H        -3.001141        -0.049815         2.052110
 H        -4.740701        -0.141193         3.106787
 H        -6.401414        -0.641885         2.703595
 H        -5.083121        -1.860575         2.981750
