19
Iteration:  4863charge 0 multiplicity 1
 C         0.607005        -1.162635        -1.004995
 C        -0.408238        -0.361714        -0.394768
 C        -1.355685         0.291920        -0.039133
 C        -2.598577         0.851586         0.328204
 O        -2.530064         2.359720         0.361657
 C        -3.399374         0.469446         1.510140
 C        -4.363248        -0.675555         1.527926
 C        -5.514589        -0.630794         2.637160
 O        -4.438515        -1.498084         0.598305
 H         1.577767        -1.108195        -0.503499
 H         0.327879        -2.244030        -0.997605
 H         0.809895        -0.848033        -2.081899
 H        -3.303807         0.698269        -0.513896
 H        -1.521896         2.557627         0.391159
 H        -2.765218         0.326009         2.359987
 H        -4.027301         1.329091         1.933220
 H        -5.183205        -0.490659         3.698031
 H        -6.166774         0.320852         2.385077
 H        -6.105976        -1.555781         2.716732
