19
Iteration:  1030charge 0 multiplicity 1
 C         1.479395         0.103897         0.387462
 C         0.072746         0.185758         0.129020
 C        -1.123591         0.030629         0.151613
 C        -2.606050         0.148143        -0.025360
 O        -3.094114         1.571643         0.295901
 C        -3.289549        -0.963267         0.807980
 C        -4.656232        -0.576256         1.076466
 C        -5.021875        -0.418382         2.515882
 O        -5.490097        -0.424707         0.206297
 H         1.826106         0.996023        -0.243383
 H         1.852047         0.368577         1.373161
 H         1.928972        -0.781519        -0.037044
 H        -2.974702        -0.042218        -1.080849
 H        -4.038142         1.629504         0.087244
 H        -3.171370        -1.930015         0.280026
 H        -2.931047        -1.174882         1.813155
 H        -4.424350         0.112929         3.272111
 H        -6.084461        -0.046732         2.642170
 H        -5.188373        -1.437212         2.844753
