19
Iteration:  2556charge 0 multiplicity 1
 C         0.332141        -1.558001        -0.212930
 C        -0.837849        -0.664040         0.047847
 C        -1.618038         0.274667         0.234330
 C        -2.741206         1.283992         0.227325
 O        -2.371590         2.610414         0.346517
 C        -3.940510         0.935445         1.186161
 C        -4.325325        -0.620590         1.121327
 C        -3.736709        -1.560945         2.362510
 O        -4.972285        -1.052654         0.254681
 H         0.995106        -1.481659         0.678066
 H         0.094764        -2.608779        -0.459211
 H         0.889525        -1.059230        -1.038678
 H        -3.217882         1.109218        -0.759795
 H        -1.751173         2.649694         1.074272
 H        -3.695340         1.121180         2.270205
 H        -4.631383         1.660738         0.855103
 H        -4.096354        -2.607616         2.152372
 H        -2.644791        -1.499851         2.332445
 H        -4.312565        -1.105700         3.186617
