19
Iteration:  1433charge 0 multiplicity 1
 C         0.860277        -0.891051        -0.005413
 C        -0.432582        -0.209139         0.041617
 C        -1.460458         0.459183         0.051090
 C        -2.789544         0.992981         0.242386
 O        -2.705977         2.449300         0.512449
 C        -3.443062         0.316379         1.363249
 C        -4.353872        -0.848722         1.102264
 C        -5.142384        -1.363226         2.231329
 O        -4.584698        -1.211098        -0.075962
 H         1.473814        -0.612375        -0.871020
 H         1.451568        -0.697145         0.880368
 H         0.812233        -1.963845         0.012243
 H        -3.403624         0.810204        -0.602831
 H        -1.798740         2.605522         0.984229
 H        -2.685583         0.076956         2.120675
 H        -4.080928         1.060401         1.882715
 H        -4.568534        -1.558897         3.185657
 H        -5.868355        -0.656085         2.651218
 H        -5.807974        -2.174111         1.948282
