19
Iteration:   370
 C         1.296202        -0.670385        -0.046545
 C        -0.077367        -0.191799        -0.042574
 C        -1.178722         0.333102        -0.000920
 C        -2.594573         0.608329         0.185905
 O        -2.785189         2.153992         0.244890
 C        -3.278409        -0.067588         1.427034
 C        -4.684495        -0.597112         1.217309
 C        -5.165768        -1.659083         2.131392
 O        -5.452812        -0.197369         0.354937
 H         1.823174        -0.191169         0.821551
 H         1.302032        -1.777846         0.131875
 H         1.774899        -0.510827        -1.047342
 H        -3.005226         0.218241        -0.769334
 H        -2.518665         2.220849         1.185842
 H        -2.493297        -0.833297         1.725213
 H        -3.407547         0.651666         2.252582
 H        -5.193639        -1.357259         3.181760
 H        -6.117383        -2.071750         1.760064
 H        -4.454642        -2.509257         2.202618
