19
Iteration:  4781
 C         0.503289        -1.051530        -0.426656
 C        -0.691993        -0.314317        -0.674115
 C        -1.810653         0.132952        -0.526260
 C        -2.778499         0.995333         0.137659
 O        -2.306452         2.295876         0.355762
 C        -3.131511         0.343607         1.653975
 C        -4.266671        -0.592028         1.592387
 C        -5.303031        -0.809627         2.608116
 O        -4.383311        -1.320849         0.570808
 H         1.038682        -0.501327         0.459547
 H         0.223091        -2.072867        -0.062551
 H         1.150519        -1.133078        -1.298017
 H        -3.669300         1.036866        -0.494165
 H        -1.373277         2.254457         0.581000
 H        -2.267995        -0.141285         2.191823
 H        -3.514089         1.128473         2.282743
 H        -5.040652        -0.913804         3.687509
 H        -5.958170         0.038987         2.658025
 H        -6.054282        -1.583330         2.287826
