19
Iteration:  4244charge 0 multiplicity 1
 C         0.810574        -0.728448         0.202186
 C        -0.653874        -0.686326         0.173043
 C        -1.666815        -0.031906        -0.019023
 C        -2.760877         0.968382         0.002041
 O        -2.105584         2.188134        -0.331757
 C        -3.502529         0.768538         1.381446
 C        -4.491433        -0.605127         1.353471
 C        -4.103397        -2.010597         1.688408
 O        -5.715176        -0.323288         1.156206
 H         0.971264         0.154522        -0.418004
 H         1.272341        -0.599587         1.189792
 H         1.204765        -1.674276        -0.294568
 H        -3.440549         0.904588        -0.792468
 H        -1.186867         2.186263         0.181804
 H        -2.967234         0.546194         2.380252
 H        -4.194124         1.610704         1.651118
 H        -3.321547        -2.332638         1.015726
 H        -4.051527        -2.093583         2.735285
 H        -5.034690        -2.441447         1.303156
