19
Iteration:   267charge 0 multiplicity 1
 C         1.449395        -0.402931         0.011295
 C         0.023293        -0.109611         0.025943
 C        -1.180864         0.084797         0.120861
 C        -2.651175         0.390234         0.092660
 O        -2.825139         1.823916        -0.150497
 C        -3.218808        -0.121134         1.479284
 C        -4.746702        -0.455851         1.363035
 C        -5.223193        -1.867737         1.833249
 O        -5.482821         0.365759         0.839765
 H         1.921282         0.056616         0.876659
 H         1.619393        -1.474390         0.053276
 H         1.933168         0.136028        -0.790733
 H        -3.105821        -0.253267        -0.743250
 H        -3.683168         1.938350         0.313836
 H        -2.716007        -1.129535         1.503156
 H        -2.801723         0.490179         2.312040
 H        -4.548883        -2.312413         2.565243
 H        -6.200255        -1.966982         2.307656
 H        -5.207394        -2.512140         0.975100
