19
Iteration:  3374charge 0 multiplicity 1
 C         0.488216        -1.370600        -0.509974
 C        -0.610910        -0.434519        -0.382288
 C        -1.637841         0.195695        -0.092307
 C        -2.802217         1.084843         0.107657
 O        -2.357017         2.439471         0.547374
 C        -3.727356         0.719700         1.333055
 C        -4.333368        -0.704780         1.357863
 C        -4.785064        -0.997015         2.728223
 O        -4.421084        -1.288045         0.329354
 H         0.284406        -2.316140         0.049957
 H         0.619133        -1.452154        -1.624208
 H         1.384261        -0.929631        -0.019278
 H        -3.360694         1.171621        -0.795987
 H        -1.458453         2.527326         0.227388
 H        -3.073411         0.867240         2.189397
 H        -4.574087         1.450065         1.607434
 H        -4.000023        -1.588233         3.243303
 H        -5.127450        -0.154864         3.358311
 H        -5.597394        -1.747099         2.737974
