19
Iteration:   493
 C         1.153123        -0.683870        -0.367415
 C        -0.120340        -0.132366        -0.056937
 C        -1.205785         0.405511         0.061720
 C        -2.573775         0.790971         0.379586
 O        -2.591747         2.146691         0.740210
 C        -3.274425        -0.074109         1.527840
 C        -4.706113        -0.660150         1.081342
 C        -5.587530        -1.099946         2.234232
 O        -4.980089        -0.963566        -0.040567
 H         1.818930        -0.000739         0.178589
 H         1.379599        -1.748213        -0.105234
 H         1.287821        -0.557262        -1.494569
 H        -3.229896         0.539109        -0.473173
 H        -2.922075         2.624937        -0.052237
 H        -2.917486        -1.056562         1.845809
 H        -3.520558         0.602977         2.436757
 H        -5.754501        -0.297568         2.950416
 H        -6.512971        -1.566365         1.868682
 H        -4.965886        -1.843520         2.839231
