19
Iteration:  3435
 C         0.393505        -1.139157        -0.160734
 C        -0.979264        -0.633538        -0.357168
 C        -1.925854         0.155586        -0.180602
 C        -2.853499         1.268725         0.132317
 O        -1.967050         2.416339         0.330837
 C        -3.573877         0.836860         1.439523
 C        -4.302746        -0.642548         1.302186
 C        -4.632425        -1.315360         2.697716
 O        -4.530473        -1.307561         0.291575
 H         0.349721        -2.181819         0.030741
 H         0.974670        -1.167946        -1.049792
 H         0.960985        -0.549140         0.565489
 H        -3.653720         1.507382        -0.682182
 H        -1.697625         2.734562        -0.494976
 H        -2.679816         0.635229         2.111060
 H        -4.182350         1.626137         1.799548
 H        -3.655228        -1.398446         3.143583
 H        -5.313012        -0.873366         3.386330
 H        -4.912682        -2.271288         2.257004
