19
Iteration:  4380
 C         0.449092        -1.421166        -0.095440
 C        -0.589469        -0.498829         0.505309
 C        -1.492576         0.302567         0.271110
 C        -2.653125         0.967664        -0.095754
 O        -2.432770         2.463622        -0.018614
 C        -3.626850         0.787929         1.091277
 C        -4.413719        -0.599527         1.245408
 C        -3.714228        -1.731589         1.886416
 O        -5.661505        -0.586633         0.924819
 H         1.440933        -0.914406        -0.466237
 H         0.801959        -2.240877         0.607462
 H         0.017684        -1.980374        -0.934174
 H        -3.141625         0.706854        -1.041877
 H        -1.519143         2.600313        -0.082814
 H        -3.191923         1.031144         2.078137
 H        -4.411992         1.594087         0.958920
 H        -2.786772        -2.098453         1.372009
 H        -3.149096        -1.626906         2.861818
 H        -4.368823        -2.582647         1.982326
