19
Iteration:  4545
 C         0.162904        -1.497131         0.100555
 C        -0.728572        -0.525419        -0.293808
 C        -1.744577         0.157241        -0.236726
 C        -2.775240         1.160430         0.023140
 O        -2.452365         2.571207         0.134961
 C        -3.533393         0.813986         1.497596
 C        -4.300472        -0.554240         1.365979
 C        -3.923356        -1.628775         2.438574
 O        -4.887919        -0.863944         0.354217
 H         1.042620        -0.894186         0.444472
 H        -0.135701        -2.096171         0.997566
 H         0.610052        -2.226120        -0.654660
 H        -3.634271         0.951688        -0.619700
 H        -1.715978         2.714013         0.863841
 H        -2.957696         1.134626         2.385438
 H        -4.371333         1.625740         1.459537
 H        -2.866900        -1.772188         2.288595
 H        -4.014664        -1.204930         3.468678
 H        -4.678621        -2.468140         2.284889
