19
Iteration:  4379charge 0 multiplicity 1
 C         0.445483        -1.416765        -0.093990
 C        -0.584984        -0.497820         0.499335
 C        -1.494259         0.301670         0.278671
 C        -2.660377         0.965819        -0.096577
 O        -2.432329         2.461994        -0.020747
 C        -3.627257         0.781282         1.075855
 C        -4.405523        -0.597749         1.253697
 C        -3.723085        -1.742373         1.887715
 O        -5.661097        -0.577040         0.927239
 H         1.441214        -0.892482        -0.467382
 H         0.833807        -2.223368         0.594633
 H         0.027907        -1.954673        -0.938707
 H        -3.072051         0.728948        -1.032789
 H        -1.487536         2.605727        -0.074317
 H        -3.195781         1.032100         2.095535
 H        -4.423601         1.579681         0.944865
 H        -2.785660        -2.112833         1.380267
 H        -3.174321        -1.655146         2.859599
 H        -4.377514        -2.590953         2.012455
