19
Iteration:   708charge 0 multiplicity 1
 C         1.313330        -0.352269        -0.517458
 C        -0.035524         0.012215        -0.135897
 C        -1.192013         0.256575         0.113949
 C        -2.574488         0.616493         0.485814
 O        -2.688070         1.957430         1.004024
 C        -3.257539        -0.347384         1.541249
 C        -4.732097        -0.791370         1.095004
 C        -5.875931        -0.267206         1.925179
 O        -4.885003        -1.389691         0.055713
 H         2.073481         0.428779        -0.427029
 H         1.599725        -1.173076         0.184174
 H         1.328590        -0.834007        -1.506526
 H        -3.222169         0.345629        -0.363816
 H        -2.456991         2.489878         0.133472
 H        -2.582680        -1.259189         1.518651
 H        -3.273923         0.110967         2.499992
 H        -5.616990         0.734717         2.403256
 H        -6.751729        -0.275212         1.258251
 H        -5.944991        -1.026854         2.778673
