19
Iteration:  1488charge 0 multiplicity 1
 C         0.828863        -0.801608        -0.096175
 C        -0.493481        -0.312532         0.029538
 C        -1.596273         0.159364         0.275304
 C        -2.805018         1.041042         0.224554
 O        -2.389499         2.447154         0.395222
 C        -3.781396         0.716075         1.477125
 C        -4.382707        -0.797477         1.144415
 C        -5.037316        -1.654047         2.190586
 O        -4.471779        -1.132097        -0.050566
 H         1.151761        -0.339843        -1.078875
 H         1.528548        -0.496243         0.681584
 H         0.865948        -1.866194        -0.299757
 H        -3.331544         0.827129        -0.643477
 H        -1.793460         2.467958         1.194675
 H        -3.169083         0.768401         2.393453
 H        -4.672493         1.394818         1.476365
 H        -4.902815        -1.427321         3.292372
 H        -6.094043        -1.634609         1.865919
 H        -4.848904        -2.765218         2.159397
