19
Iteration:  3226
 C         0.665251        -1.243393        -0.699617
 C        -0.604403        -0.464914        -0.488985
 C        -1.533450         0.227304        -0.146871
 C        -2.672207         1.039427         0.253802
 O        -2.384921         2.460740         0.363944
 C        -3.368607         0.641424         1.620737
 C        -4.404881        -0.606221         1.547151
 C        -5.347980        -1.066539         2.590005
 O        -4.448070        -1.340219         0.485585
 H         0.605661        -1.929227         0.142769
 H         0.825113        -1.751489        -1.629896
 H         1.464193        -0.554319        -0.496248
 H        -3.394970         0.978481        -0.495575
 H        -1.965717         2.701035        -0.540947
 H        -2.620298         0.609208         2.448348
 H        -3.905903         1.531818         1.812210
 H        -4.875367        -1.474698         3.533454
 H        -6.053030        -0.219462         2.841211
 H        -5.807303        -1.974985         2.194042
