19
Iteration:  3363
 C         0.505180        -1.348344        -0.563175
 C        -0.646949        -0.448748        -0.431566
 C        -1.570197         0.190038        -0.001158
 C        -2.714777         1.118742         0.211247
 O        -2.388212         2.535745         0.486293
 C        -3.676469         0.761786         1.324793
 C        -4.384989        -0.581701         1.311366
 C        -4.873176        -1.111780         2.781191
 O        -4.448907        -1.427505         0.352098
 H         0.170403        -2.308368        -0.085506
 H         0.760134        -1.800558        -1.560106
 H         1.495301        -1.059395        -0.159675
 H        -3.137076         1.085276        -0.756873
 H        -1.514973         2.699536         0.213778
 H        -3.073081         0.751205         2.233631
 H        -4.403486         1.650775         1.325382
 H        -4.000346        -1.583090         3.280752
 H        -5.073035        -0.189484         3.360388
 H        -5.752733        -1.764996         2.653029
