19
Iteration:  3429charge 0 multiplicity 1
 C         0.465528        -1.162935        -0.202370
 C        -0.988415        -0.593898        -0.289062
 C        -1.982124         0.142210        -0.209006
 C        -2.855375         1.274617         0.113578
 O        -1.972926         2.405730         0.388605
 C        -3.555639         0.788746         1.368491
 C        -4.360721        -0.637835         1.298739
 C        -4.625446        -1.279870         2.666901
 O        -4.493624        -1.305590         0.327157
 H         0.236388        -2.254231         0.046851
 H         1.029244        -1.131230        -1.195969
 H         1.071192        -0.563990         0.501184
 H        -3.616791         1.548552        -0.572357
 H        -1.733037         2.690572        -0.573339
 H        -2.692871         0.718370         2.012863
 H        -4.232467         1.597739         1.814287
 H        -3.659764        -1.332205         3.264719
 H        -5.300423        -0.844349         3.488322
 H        -5.068142        -2.236383         2.299499
