19
Iteration:  1482charge 0 multiplicity 1
 C         0.838743        -0.784735        -0.115037
 C        -0.479835        -0.300216         0.061487
 C        -1.603765         0.103747         0.253009
 C        -2.794137         1.119080         0.214824
 O        -2.417300         2.441556         0.381306
 C        -3.753708         0.629838         1.490301
 C        -4.385470        -0.803362         1.115337
 C        -5.052442        -1.648050         2.225318
 O        -4.463074        -1.118603        -0.050213
 H         1.232137        -0.397402        -1.042501
 H         1.548295        -0.632896         0.719361
 H         0.893782        -1.897791        -0.178070
 H        -3.338989         1.082249        -0.815624
 H        -1.978799         2.556041         1.188323
 H        -3.167445         0.738774         2.416398
 H        -4.548700         1.368532         1.606000
 H        -4.936622        -1.317187         3.233496
 H        -6.160077        -1.567055         2.116523
 H        -4.944058        -2.718437         2.014333
