19
Iteration:  3658charge 0 multiplicity 1
 C         0.435513        -1.134298         0.009341
 C        -0.952426        -0.720103        -0.131337
 C        -1.957814        -0.003813        -0.315584
 C        -2.800607         1.129792         0.142460
 O        -2.113194         2.323150         0.056862
 C        -3.698461         0.903403         1.383610
 C        -4.296604        -0.531194         1.391615
 C        -3.925668        -1.538979         2.502713
 O        -5.012685        -0.847381         0.403512
 H         0.762592        -2.060116        -0.494578
 H         1.139435        -0.381764        -0.357737
 H         0.736156        -1.347185         0.988846
 H        -3.617856         1.160993        -0.669178
 H        -1.647525         2.471913         0.923279
 H        -3.140683         1.012533         2.291667
 H        -4.486635         1.629622         1.423377
 H        -2.868266        -1.701117         2.575123
 H        -4.369384        -0.969903         3.356321
 H        -4.422980        -2.505666         2.296016
