19
Iteration:  2420
 C         0.423517        -1.375174         0.210305
 C        -0.583941        -0.263830         0.047356
 C        -1.632023         0.309665        -0.164636
 C        -2.842661         1.145224         0.122452
 O        -2.426599         2.459627         0.174397
 C        -3.620124         0.744257         1.398610
 C        -4.404654        -0.660544         1.222051
 C        -3.825737        -1.887223         2.074313
 O        -5.265349        -0.725193         0.405619
 H         0.987878        -1.208695         1.198436
 H        -0.076245        -2.417491         0.232455
 H         1.245548        -1.468620        -0.591339
 H        -3.634630         1.146553        -0.741097
 H        -1.442292         2.406540         0.521677
 H        -2.909198         0.837079         2.252242
 H        -4.414002         1.597850         1.438919
 H        -3.225990        -1.446512         2.915645
 H        -4.616773        -2.490495         2.628256
 H        -3.309740        -2.651366         1.441151
