19
Iteration:  2684charge 0 multiplicity 1
 C         0.174098        -1.532039        -0.036958
 C        -0.940989        -0.571639         0.091491
 C        -1.799031         0.215134        -0.198763
 C        -2.861623         1.187597         0.089799
 O        -2.487952         2.580143         0.362683
 C        -3.467806         0.725273         1.506938
 C        -4.136758        -0.617467         1.229816
 C        -4.022168        -1.528335         2.400321
 O        -4.680586        -0.825347         0.089290
 H         0.770253        -1.633960         0.857962
 H        -0.160794        -2.495819        -0.464826
 H         0.807259        -1.045462        -0.816454
 H        -3.651676         1.123745        -0.727391
 H        -1.507136         2.654956         0.386613
 H        -2.646754         0.607015         2.270274
 H        -4.291049         1.450632         1.702928
 H        -3.129734        -1.288641         3.035140
 H        -4.966607        -1.190878         2.819389
 H        -4.151345        -2.604948         2.213331
