19
Iteration:  4745
 C         0.499698        -1.100781        -0.454018
 C        -0.732819        -0.373728        -0.545472
 C        -1.760150         0.189106        -0.325570
 C        -2.794178         1.058311         0.170871
 O        -2.219959         2.308762         0.336038
 C        -3.400368         0.463449         1.611670
 C        -4.315496        -0.604858         1.431649
 C        -5.110577        -0.865274         2.725944
 O        -4.420590        -1.386599         0.447711
 H         1.162159        -0.635862         0.270218
 H         0.308034        -2.131039        -0.086572
 H         1.182619        -1.164970        -1.342915
 H        -3.776355         1.153047        -0.469644
 H        -1.448448         2.286317        -0.200986
 H        -2.565762         0.012112         2.215698
 H        -3.809467         1.297006         2.275173
 H        -4.437523        -1.105061         3.586907
 H        -5.428993         0.171497         2.771703
 H        -5.826433        -1.667653         2.562581
