19
Iteration:   316
 C         1.377259        -0.545630        -0.032496
 C        -0.066638        -0.171058         0.087477
 C        -1.231641         0.217119         0.121566
 C        -2.664414         0.528569         0.135768
 O        -2.842225         1.922535         0.142589
 C        -3.206858        -0.083392         1.358611
 C        -4.696203        -0.509832         1.225431
 C        -5.096856        -1.863690         2.001805
 O        -5.492463         0.178843         0.597973
 H         2.088304        -0.120229         0.723793
 H         1.376139        -1.653575         0.055857
 H         1.811113        -0.109338        -0.961779
 H        -3.032158         0.055782        -0.745447
 H        -2.559136         2.137700        -0.775774
 H        -2.522316        -0.775859         1.847046
 H        -3.419740         0.781582         2.008733
 H        -4.704459        -1.852372         3.033894
 H        -6.192147        -1.916486         2.212745
 H        -4.766305        -2.820446         1.495339
