19
Iteration:  4796charge 0 multiplicity 1
 C         0.600183        -1.071574        -0.486623
 C        -0.735871        -0.433114        -0.585515
 C        -1.756918         0.268426        -0.562962
 C        -2.836078         0.929299         0.267049
 O        -2.357315         2.301271         0.350267
 C        -3.134670         0.426516         1.624486
 C        -4.212264        -0.677090         1.557900
 C        -5.382329        -0.723961         2.633376
 O        -4.395343        -1.350680         0.564846
 H         1.266203        -0.647471         0.305779
 H         0.561379        -2.139699        -0.257760
 H         1.136261        -1.024632        -1.454947
 H        -3.785483         1.024077        -0.205689
 H        -1.529699         2.248335         0.788363
 H        -2.279370        -0.198984         1.760983
 H        -3.133260         1.311071         2.325338
 H        -5.002230        -0.904507         3.641699
 H        -5.972585         0.226597         2.313568
 H        -5.980034        -1.561970         2.273954
