19
Iteration:  1008
 C         1.484828         0.218061         0.380990
 C         0.042793         0.103861         0.205591
 C        -1.158227         0.066305        -0.044383
 C        -2.598495         0.126768        -0.015344
 O        -3.030364         1.471100         0.381404
 C        -3.238854        -0.974419         0.795464
 C        -4.744875        -0.564418         1.120314
 C        -5.060706        -0.359321         2.542097
 O        -5.544422        -0.452574         0.180635
 H         2.053768         1.104257        -0.036996
 H         1.679604         0.304710         1.459396
 H         1.939282        -0.727152         0.097102
 H        -2.892859        -0.063142        -1.099417
 H        -3.222647         2.103880        -0.368004
 H        -3.396126        -1.798782         0.081625
 H        -2.683277        -1.449501         1.621343
 H        -4.343180         0.392408         2.904271
 H        -6.068261        -0.093834         2.983083
 H        -4.891461        -1.306945         3.054206
