19
Iteration:   641
 C         1.228269        -0.370674        -0.653442
 C        -0.096334        -0.117191        -0.103528
 C        -1.232530         0.186091         0.257093
 C        -2.602991         0.614678         0.530245
 O        -2.588166         2.071513         0.969435
 C        -3.381278        -0.257458         1.596870
 C        -4.646442        -0.839211         1.102208
 C        -5.859829        -0.403758         1.940835
 O        -4.743960        -1.329600        -0.022645
 H         1.984961         0.440127        -0.479416
 H         1.498748        -1.319763        -0.155868
 H         1.139879        -0.558185        -1.720849
 H        -3.026306         0.758101        -0.448026
 H        -2.789201         2.615386         0.249664
 H        -2.691844        -1.039084         2.033467
 H        -3.524646         0.455511         2.398172
 H        -6.226576         0.650882         1.595863
 H        -6.752936        -1.072117         1.857587
 H        -5.461788        -0.405431         3.005717
