19
Iteration:  3982
 C         0.575983        -1.062397         0.357016
 C        -0.721139        -0.439743         0.205025
 C        -1.707039         0.065015        -0.300750
 C        -2.804140         0.978526        -0.139510
 O        -2.093130         2.298801        -0.023868
 C        -3.558684         0.648401         1.146172
 C        -4.488279        -0.583293         1.267769
 C        -3.742202        -1.850661         1.739071
 O        -5.665683        -0.449321         1.253828
 H         1.193815        -1.196555        -0.509240
 H         1.238985        -0.527279         1.091527
 H         0.544158        -2.106974         0.852304
 H        -3.526711         0.995105        -0.969359
 H        -2.531637         2.851868        -0.620150
 H        -2.890857         0.650147         2.017111
 H        -4.352207         1.430481         1.300392
 H        -3.151418        -2.251152         0.765292
 H        -2.907805        -1.659397         2.490653
 H        -4.428499        -2.650753         2.135558
