19
Iteration:  1360charge 0 multiplicity 1
 C         0.948274        -0.896862        -0.012207
 C        -0.241980        -0.005283         0.003806
 C        -1.346636         0.521627         0.127161
 C        -2.712812         0.923380         0.234405
 O        -2.773080         2.341541         0.460474
 C        -3.271613         0.184034         1.440998
 C        -4.429453        -0.817641         1.071385
 C        -5.396005        -1.278660         2.304620
 O        -4.652869        -1.170778        -0.075361
 H         1.580725        -0.662167        -0.938975
 H         1.715712        -0.874438         0.842817
 H         0.724550        -2.021840        -0.045637
 H        -3.363445         0.635742        -0.701467
 H        -3.632349         2.533878        -0.041842
 H        -2.527078        -0.506887         1.904699
 H        -3.659877         0.790893         2.261833
 H        -5.301967        -2.304982         2.698048
 H        -5.130820        -0.717150         3.226615
 H        -6.444994        -0.987603         2.089199
