19
Iteration:  2058charge 0 multiplicity 1
 C         0.370744        -1.456955         0.343722
 C        -0.580933        -0.390510         0.245390
 C        -1.531888         0.368043         0.277253
 C        -2.839092         1.113940         0.134118
 O        -2.646648         2.535119         0.217741
 C        -3.640955         0.714020         1.382598
 C        -4.290050        -0.643993         1.082703
 C        -3.631105        -1.884730         1.603315
 O        -5.308486        -0.636550         0.363791
 H         1.316520        -1.002467         0.622973
 H         0.190360        -2.107947         1.190607
 H         0.346571        -2.052042        -0.550270
 H        -3.341017         0.705533        -0.745466
 H        -1.734776         2.675475         0.015284
 H        -3.011038         0.918458         2.236732
 H        -4.521115         1.356628         1.486700
 H        -3.162111        -2.320167         0.635373
 H        -3.028828        -1.497730         2.495841
 H        -4.351750        -2.681707         1.994050
