19
Iteration:   547charge 0 multiplicity 1
 C         1.205794        -0.546132        -0.543820
 C        -0.185877        -0.181150        -0.120594
 C        -1.254649         0.314753         0.206365
 C        -2.637693         0.697154         0.508821
 O        -2.708759         2.111920         0.794114
 C        -3.261536        -0.117359         1.630905
 C        -4.594092        -0.703428         1.049958
 C        -5.702310        -0.776590         2.089670
 O        -4.804445        -1.102918        -0.079127
 H         2.014346         0.064718        -0.167507
 H         1.325131        -1.587808        -0.181168
 H         1.314752        -0.592580        -1.661059
 H        -3.263945         0.364007        -0.337596
 H        -1.744080         2.399135         0.881188
 H        -2.889114        -0.985407         2.214673
 H        -3.572152         0.579280         2.456688
 H        -6.222377         0.110041         2.302679
 H        -6.509966        -1.345226         1.662677
 H        -5.343793        -1.228096         3.045585
