19
Iteration:   698
 C         1.326852        -0.400034        -0.537852
 C        -0.044542        -0.042467        -0.147246
 C        -1.196459         0.289782         0.144456
 C        -2.593288         0.623787         0.486588
 O        -2.709431         1.965444         0.951392
 C        -3.285174        -0.304630         1.555333
 C        -4.751863        -0.809229         1.130974
 C        -5.921152        -0.284607         1.943889
 O        -4.799253        -1.396811         0.027154
 H         1.869595         0.533167        -0.434268
 H         1.911240        -1.124287         0.036638
 H         1.440198        -0.641711        -1.614041
 H        -3.104723         0.582604        -0.500459
 H        -1.871533         2.557831         0.750619
 H        -2.680222        -1.237185         1.401311
 H        -3.178462        -0.047976         2.573533
 H        -5.845163         0.787636         2.349878
 H        -6.916350        -0.374437         1.451246
 H        -6.167314        -0.859353         2.939530
