19
Iteration:  1805
 C         0.602650        -1.281293        -0.157908
 C        -0.681347        -0.540400         0.127473
 C        -1.527603         0.379023         0.344252
 C        -2.742104         1.251206         0.314834
 O        -2.444283         2.661757         0.663330
 C        -3.859966         0.771697         1.179858
 C        -4.408874        -0.703122         0.961955
 C        -4.240965        -1.585281         2.176325
 O        -4.865175        -1.283052        -0.065432
 H         1.384722        -0.771225        -0.766806
 H         1.071690        -1.568260         0.775117
 H         0.438095        -2.190277        -0.663890
 H        -2.963894         1.338348        -0.788549
 H        -1.896866         2.803851         1.504937
 H        -3.335201         0.944144         2.101215
 H        -4.776759         1.284416         1.134877
 H        -3.336036        -1.465631         2.744749
 H        -5.098621        -1.217949         2.770162
 H        -4.514182        -2.535971         1.767685
