19
Iteration:   842
 C         1.466891        -0.095987        -0.071984
 C         0.070027         0.165920         0.053169
 C        -1.130772         0.211190         0.150469
 C        -2.494569         0.406027         0.287507
 O        -2.999153         1.693053         0.707845
 C        -3.200540        -0.906053         0.921439
 C        -4.743338        -0.711337         1.024667
 C        -5.321059        -0.002884         2.231462
 O        -5.503233        -1.059193         0.167372
 H         2.123404         0.732957        -0.205113
 H         1.819144        -0.466921         0.894197
 H         1.560614        -0.935318        -0.788427
 H        -2.871067         0.422259        -0.768580
 H        -2.343336         1.905276         1.400179
 H        -2.957559        -1.736418         0.325189
 H        -2.836065        -0.975763         1.966139
 H        -5.251336         1.074433         2.147706
 H        -6.347666        -0.384735         2.156666
 H        -4.919337        -0.426646         3.220899
