19
Iteration:  3540charge 0 multiplicity 1
 C         0.259405        -1.594893        -0.314466
 C        -0.624790        -0.501402        -0.022990
 C        -1.324809         0.473237         0.235405
 C        -2.653617         1.138532         0.213977
 O        -2.579717         2.656627         0.003867
 C        -3.531767         0.680151         1.384489
 C        -4.141514        -0.709801         1.245569
 C        -4.349314        -1.472007         2.630059
 O        -4.998180        -0.973622         0.322607
 H        -0.341333        -2.586164        -0.478696
 H         0.810425        -1.351387        -1.272622
 H         1.020257        -1.936025         0.443041
 H        -3.084189         0.767664        -0.735388
 H        -2.184811         2.870043        -0.795161
 H        -2.948023         0.850536         2.288472
 H        -4.501161         1.240960         1.523122
 H        -3.419952        -1.904652         3.088955
 H        -4.833409        -0.586845         3.267702
 H        -5.144195        -2.260112         2.491112
