19
Iteration:  3888charge 0 multiplicity 1
 C         0.530861        -1.442738         0.208020
 C        -0.630800        -0.539088         0.248861
 C        -1.603058         0.123837        -0.061712
 C        -2.766540         1.025052        -0.058024
 O        -2.440413         2.411471        -0.096485
 C        -3.605698         0.808513         1.343525
 C        -4.383680        -0.500744         1.361396
 C        -3.597061        -1.639133         1.748460
 O        -5.571706        -0.625346         0.938261
 H         0.852354        -1.871012        -0.798890
 H         1.381196        -0.948585         0.697637
 H         0.293570        -2.265353         0.857258
 H        -3.353844         0.810965        -0.975110
 H        -3.292476         2.884674        -0.278180
 H        -2.889086         0.803575         2.159135
 H        -4.055611         1.808347         1.315739
 H        -3.345113        -2.148193         0.893222
 H        -2.755200        -1.304199         2.344308
 H        -4.268756        -2.180604         2.355253
