19
Iteration:    72
 C         1.454382         0.262323         0.105548
 C         0.057645        -0.103832        -0.026177
 C        -1.137638        -0.162950         0.015875
 C        -2.587495        -0.142751         0.040175
 O        -3.165013         1.103783        -0.593288
 C        -3.169901        -0.463669         1.533234
 C        -4.652192        -0.234098         1.521055
 C        -5.502294        -1.507546         1.233736
 O        -5.130238         0.872542         1.808708
 H         1.702445         0.460420         1.179194
 H         2.095380        -0.570300        -0.289120
 H         1.709408         1.109583        -0.576940
 H        -3.026057        -0.869546        -0.732914
 H        -2.622988         1.801203        -0.042745
 H        -2.902476        -1.561293         1.606834
 H        -2.607489        -0.014397         2.357031
 H        -5.321226        -2.414518         1.910448
 H        -6.597024        -1.366706         1.443549
 H        -5.546964        -1.761056         0.158211
