19
Iteration:  2680charge 0 multiplicity 1
 C         0.164748        -1.514863        -0.013371
 C        -0.930067        -0.592748         0.050992
 C        -1.818051         0.236120        -0.176275
 C        -2.874644         1.176368         0.095735
 O        -2.467136         2.593836         0.361167
 C        -3.457317         0.717183         1.480098
 C        -4.120299        -0.639579         1.226193
 C        -4.041464        -1.538067         2.399155
 O        -4.680820        -0.828020         0.103297
 H         0.781466        -1.651682         0.873563
 H        -0.173686        -2.435280        -0.450362
 H         0.766906        -1.096237        -0.798945
 H        -3.604916         1.215019        -0.663575
 H        -1.505017         2.645153         0.389011
 H        -2.752879         0.722971         2.270787
 H        -4.317111         1.393867         1.642287
 H        -3.126815        -1.226666         2.899323
 H        -4.938906        -1.127968         3.039294
 H        -4.111447        -2.631002         2.117007
