19
Iteration:  1478
 C         0.867448        -0.799450        -0.128676
 C        -0.476139        -0.292775         0.093032
 C        -1.640854         0.106676         0.225678
 C        -2.791716         1.126201         0.237635
 O        -2.434914         2.446405         0.362341
 C        -3.730544         0.566841         1.460931
 C        -4.390118        -0.783956         1.116043
 C        -5.078790        -1.639899         2.233993
 O        -4.456025        -1.113479        -0.050581
 H         1.377402        -0.417562        -1.041084
 H         1.504500        -0.604968         0.718730
 H         0.842258        -1.855944        -0.142935
 H        -3.261163         1.203244        -0.706602
 H        -2.029788         2.605151         1.299820
 H        -3.170998         0.605135         2.408543
 H        -4.511699         1.323170         1.659482
 H        -4.816110        -1.252466         3.264695
 H        -6.170700        -1.446915         2.214670
 H        -4.876127        -2.713100         1.968490
