19
Iteration:  1681
 C         0.437185        -1.192456         0.125966
 C        -0.782629        -0.441383         0.153099
 C        -1.721787         0.336774        -0.032463
 C        -2.882518         1.211058         0.230545
 O        -2.616055         2.641127         0.498857
 C        -3.481636         0.584013         1.547899
 C        -4.105701        -0.668390         1.023748
 C        -4.560672        -1.708458         2.057118
 O        -4.435342        -1.001706        -0.111955
 H         1.183265        -1.092381        -0.613371
 H         0.978073        -1.217482         1.071164
 H         0.092805        -2.245409        -0.035694
 H        -3.722731         1.066528        -0.572403
 H        -1.761361         2.493792         1.056958
 H        -2.848877         0.201019         2.350364
 H        -4.241038         1.266453         1.902296
 H        -4.930079        -2.590371         1.447362
 H        -3.648430        -1.943761         2.644912
 H        -5.370489        -1.421613         2.780993
