19
Iteration:   367charge 0 multiplicity 1
 C         1.284632        -0.679101        -0.045473
 C        -0.071790        -0.166962        -0.044420
 C        -1.178368         0.316172        -0.008657
 C        -2.599612         0.617248         0.213572
 O        -2.768243         2.112975         0.237041
 C        -3.258922        -0.050274         1.428641
 C        -4.693050        -0.595802         1.216634
 C        -5.146307        -1.654499         2.117634
 O        -5.479067        -0.188714         0.363808
 H         1.841632        -0.172065         0.780975
 H         1.272463        -1.749161         0.169620
 H         1.781900        -0.426075        -0.977998
 H        -2.955873         0.171051        -0.772091
 H        -2.703000         2.325375         1.159699
 H        -2.494513        -0.932846         1.727862
 H        -3.387923         0.644529         2.254694
 H        -5.222049        -1.361555         3.206292
 H        -6.077184        -2.058209         1.745868
 H        -4.432922        -2.461196         2.058244
