19
Iteration:  1788
 C         0.471871        -1.270471        -0.138139
 C        -0.600606        -0.428973         0.209956
 C        -1.522954         0.403709         0.266404
 C        -2.682945         1.254370         0.284245
 O        -2.460993         2.623840         0.612116
 C        -3.872978         0.671031         1.194190
 C        -4.307757        -0.794339         0.982436
 C        -4.345365        -1.630347         2.235571
 O        -4.801613        -1.136224        -0.117088
 H         1.119754        -0.664186        -0.819493
 H         1.151570        -1.691134         0.673097
 H         0.164087        -2.255640        -0.666306
 H        -3.175022         1.251783        -0.664136
 H        -1.906360         2.586076         1.487708
 H        -3.731566         0.788557         2.324836
 H        -4.713615         1.436118         0.941830
 H        -3.239024        -1.762590         2.556363
 H        -4.620566        -1.094349         3.166760
 H        -4.789923        -2.667032         2.164610
