19
Iteration:  2660charge 0 multiplicity 1
 C         0.172353        -1.527536         0.004523
 C        -0.941933        -0.555901        -0.170318
 C        -1.781650         0.333296        -0.054927
 C        -2.845279         1.314167         0.136337
 O        -2.339342         2.601404         0.308092
 C        -3.614225         0.779163         1.410017
 C        -4.149306        -0.628768         1.256255
 C        -4.037811        -1.635280         2.411600
 O        -4.703931        -0.956853         0.178558
 H         0.401070        -1.349556         1.031873
 H        -0.133065        -2.551769        -0.130601
 H         1.062980        -1.344060        -0.573344
 H        -3.489848         1.234845        -0.733144
 H        -1.323167         2.522184         0.422313
 H        -2.922454         0.742698         2.226791
 H        -4.555856         1.384433         1.562817
 H        -2.985821        -1.890993         2.644277
 H        -4.639217        -1.260488         3.306059
 H        -4.619749        -2.551275         2.031878
