19
Iteration:  3679charge 0 multiplicity 1
 C         0.391553        -1.144203         0.093080
 C        -0.883065        -0.446557        -0.234367
 C        -2.043934        -0.110865        -0.229963
 C        -2.924807         1.044767        -0.042639
 O        -2.089921         2.261781         0.179398
 C        -3.585730         0.779347         1.311361
 C        -4.245549        -0.519718         1.309242
 C        -3.862341        -1.451424         2.477413
 O        -5.107202        -0.773298         0.475936
 H         0.675781        -2.114343        -0.300910
 H         1.235630        -0.467434        -0.081845
 H         0.386199        -1.372588         1.135078
 H        -3.535888         1.356502        -0.911219
 H        -1.439205         1.952201         0.929854
 H        -2.869875         0.865566         2.106975
 H        -4.453039         1.406393         1.537211
 H        -2.829734        -1.430692         2.650815
 H        -4.377559        -1.124238         3.355189
 H        -4.079383        -2.518416         2.376530
