19
Iteration:  4550charge 0 multiplicity 1
 C         0.221563        -1.492418         0.056295
 C        -0.782324        -0.535478        -0.336223
 C        -1.721629         0.167201        -0.167541
 C        -2.786893         1.097088         0.100792
 O        -2.453316         2.565353         0.120516
 C        -3.560232         0.838503         1.507589
 C        -4.269793        -0.518540         1.378474
 C        -3.961527        -1.560789         2.455082
 O        -4.875140        -0.894159         0.299599
 H         1.146574        -1.060118         0.443401
 H        -0.156654        -2.140934         0.873579
 H         0.599364        -2.215019        -0.709125
 H        -3.541673         0.925715        -0.699851
 H        -1.989985         2.821848         0.893033
 H        -2.959658         1.013804         2.410031
 H        -4.270270         1.604138         1.538816
 H        -2.863783        -1.900659         2.405532
 H        -4.091492        -1.115617         3.445304
 H        -4.566647        -2.424170         2.232634
