19
Iteration:  4995charge 0 multiplicity 1
 C         0.665696        -0.920526        -0.717986
 C        -0.667207        -0.458564        -0.531569
 C        -1.730700         0.099860        -0.280564
 C        -2.822443         0.901301         0.122804
 O        -2.180553         2.238654         0.285739
 C        -3.451710         0.600857         1.608741
 C        -4.344559        -0.656587         1.668484
 C        -5.451030        -0.771057         2.680160
 O        -4.283691        -1.443272         0.683761
 H         1.226925        -0.902388         0.234082
 H         0.696870        -1.931803        -1.265213
 H         1.301301        -0.188265        -1.387219
 H        -3.660947         1.082093        -0.552046
 H        -1.409342         2.046837        -0.328590
 H        -2.502676         0.329084         1.992478
 H        -3.842957         1.543789         2.135435
 H        -4.916271        -0.492671         3.609761
 H        -6.114640         0.128075         2.564999
 H        -5.975983        -1.733199         2.404584
