19
Iteration:   437charge 0 multiplicity 1
 C         1.143167        -0.682881        -0.179381
 C        -0.135465        -0.105015        -0.057206
 C        -1.273524         0.277510         0.026970
 C        -2.643576         0.687894         0.317824
 O        -2.650906         2.115047         0.526775
 C        -3.278308         0.000173         1.423298
 C        -4.668905        -0.621614         1.092763
 C        -5.280684        -1.350870         2.327394
 O        -5.108050        -0.564151        -0.025442
 H         1.904133        -0.240510         0.497387
 H         0.996666        -1.752316         0.144717
 H         1.547738        -0.626082        -1.250665
 H        -3.385317         0.468535        -0.496209
 H        -3.386160         2.324704         1.254034
 H        -2.781919        -0.976152         1.665503
 H        -3.409979         0.546469         2.408292
 H        -5.382239        -0.725262         3.190619
 H        -6.145382        -2.001269         2.099074
 H        -4.440034        -2.097588         2.541474
