19
Iteration:   387charge 0 multiplicity 1
 C         1.303904        -0.709273        -0.075809
 C        -0.103188        -0.253127        -0.023817
 C        -1.206379         0.315401         0.054140
 C        -2.672979         0.774792         0.114371
 O        -2.811364         2.175047         0.359693
 C        -3.245950        -0.063921         1.362126
 C        -4.669835        -0.701961         1.194316
 C        -5.237501        -1.707915         2.277267
 O        -5.302962        -0.223073         0.253860
 H         1.934359        -0.158075         0.623415
 H         1.383291        -1.756839         0.154763
 H         1.746867        -0.385902        -1.001537
 H        -3.248674         0.555867        -0.838109
 H        -2.024754         2.647373         0.456059
 H        -2.648200        -0.888783         1.824124
 H        -3.389315         0.773028         2.059928
 H        -5.403640        -1.063629         3.179801
 H        -6.228956        -2.029790         1.963482
 H        -4.601334        -2.571008         2.435701
