19
Iteration:  3481charge 0 multiplicity 1
 C         0.392799        -1.431294        -0.101155
 C        -0.777308        -0.528103        -0.295369
 C        -1.824297         0.104288        -0.253679
 C        -2.872018         1.106295         0.055857
 O        -2.412951         2.427533         0.323436
 C        -3.512710         0.794885         1.501350
 C        -4.182559        -0.544561         1.386322
 C        -4.440119        -1.407848         2.621585
 O        -4.585008        -0.903974         0.224353
 H         0.180366        -2.466706        -0.008176
 H         1.141364        -1.326996        -0.886661
 H         0.861707        -0.976058         0.763242
 H        -3.718348         1.070859        -0.729246
 H        -1.620755         2.644926        -0.232098
 H        -2.633017         0.847594         2.172644
 H        -4.299394         1.458515         1.775515
 H        -3.572683        -1.316840         3.307306
 H        -5.216271        -0.844866         3.195687
 H        -4.828556        -2.406889         2.396558
