19
Iteration:  1873
 C         0.551897        -1.155110         0.024608
 C        -0.654252        -0.359458         0.197409
 C        -1.762681         0.128475         0.129008
 C        -2.854917         1.195334         0.247465
 O        -2.222748         2.413603         0.668521
 C        -4.022623         0.930484         1.173592
 C        -4.471154        -0.652133         1.032623
 C        -4.001063        -1.634124         2.106315
 O        -4.874771        -1.138366        -0.001506
 H         1.457745        -0.787360        -0.516135
 H         0.825484        -1.550682         1.020107
 H         0.224314        -1.909492        -0.722810
 H        -3.300900         1.358927        -0.773594
 H        -1.517968         2.101346         1.166011
 H        -3.711854         1.003816         2.236607
 H        -4.665567         1.763290         0.767030
 H        -3.952771        -1.222451         3.120824
 H        -4.536814        -2.542162         1.859414
 H        -2.963848        -1.877470         1.751148
