19
Iteration:  3733
 C         0.450390        -1.336206         0.144057
 C        -0.747572        -0.647240        -0.156969
 C        -1.690916         0.142629        -0.238071
 C        -2.773438         1.136854        -0.038287
 O        -2.212085         2.539227         0.135458
 C        -3.696199         0.826602         1.225628
 C        -4.300466        -0.592424         1.345776
 C        -3.843132        -1.640771         2.403620
 O        -5.375623        -0.823629         0.691313
 H         0.566981        -2.082740        -0.646952
 H         1.414816        -0.821321         0.025499
 H         0.556047        -1.887838         1.093209
 H        -3.340985         1.178126        -0.910357
 H        -1.818084         2.739925        -0.763625
 H        -3.208299         1.067065         2.171341
 H        -4.601253         1.457276         1.137507
 H        -2.791482        -1.699160         2.442159
 H        -4.208622        -1.256953         3.317655
 H        -4.240376        -2.625667         2.190596
