19
Iteration:  3283charge 0 multiplicity 1
 C         0.404524        -1.362507        -0.860123
 C        -0.436509        -0.342508        -0.115168
 C        -1.556089         0.135996         0.201526
 C        -2.766453         0.944490         0.309965
 O        -2.631526         2.318176         0.313258
 C        -3.487380         0.675091         1.624124
 C        -4.340520        -0.475110         1.322404
 C        -5.094164        -0.914771         2.541895
 O        -4.180155        -1.267631         0.343018
 H         0.503902        -2.302447        -0.387231
 H         0.021251        -1.438745        -1.860620
 H         1.387861        -0.868059        -0.882048
 H        -3.348852         0.660266        -0.478744
 H        -2.055755         2.473747        -0.416903
 H        -2.676366         0.379778         2.348877
 H        -3.863758         1.548584         2.098760
 H        -4.377002        -1.585719         3.088917
 H        -5.516003        -0.076133         3.129557
 H        -6.018274        -1.356063         2.084789
