19
Iteration:  3268
 C         0.478675        -1.262933        -0.797034
 C        -0.593291        -0.503738        -0.290073
 C        -1.480516         0.215050         0.174263
 C        -2.733363         0.955268         0.355670
 O        -2.590158         2.377311         0.239975
 C        -3.411246         0.640251         1.663848
 C        -4.315923        -0.557848         1.441796
 C        -5.265300        -0.972672         2.532242
 O        -4.173406        -1.184020         0.345602
 H         0.565961        -2.247574        -0.262256
 H         0.279583        -1.565697        -1.843022
 H         1.489710        -0.881562        -0.833210
 H        -3.391132         0.515124        -0.444165
 H        -2.072214         2.628601        -0.524006
 H        -2.745573         0.290198         2.448098
 H        -4.053133         1.487514         1.942242
 H        -4.618549        -1.552569         3.220157
 H        -5.534154        -0.136870         3.195103
 H        -6.098543        -1.612533         2.280271
