19
Iteration:  3371
 C         0.490063        -1.359740        -0.519529
 C        -0.606991        -0.447631        -0.405905
 C        -1.626584         0.195228        -0.068466
 C        -2.781518         1.087036         0.143537
 O        -2.365933         2.470451         0.533030
 C        -3.727144         0.741367         1.335160
 C        -4.350945        -0.680846         1.334226
 C        -4.805248        -1.017995         2.749430
 O        -4.426891        -1.322704         0.337086
 H         0.271884        -2.278386        -0.020581
 H         0.628119        -1.556532        -1.584643
 H         1.426193        -1.000743        -0.047812
 H        -3.252826         1.137634        -0.878317
 H        -1.468187         2.585746         0.235756
 H        -3.024011         0.851503         2.187871
 H        -4.475417         1.450285         1.544698
 H        -4.034531        -1.641762         3.250355
 H        -5.121406        -0.142281         3.349446
 H        -5.621873        -1.806062         2.730001
