19
Iteration:  4344
 C         0.755905        -1.355703        -0.056806
 C        -0.430426        -0.523998         0.140792
 C        -1.396104         0.211569         0.310886
 C        -2.692046         0.989006         0.085180
 O        -2.385439         2.449210        -0.112780
 C        -3.767731         0.841598         1.085290
 C        -4.513844        -0.503890         1.241358
 C        -3.934608        -1.857262         1.884547
 O        -5.721650        -0.589958         1.086665
 H         1.594733        -0.637674        -0.424602
 H         1.130972        -1.866887         0.834207
 H         0.580697        -2.062228        -0.867988
 H        -2.941090         0.697295        -0.832251
 H        -1.450537         2.525320         0.078660
 H        -3.504805         1.308062         2.125500
 H        -4.593733         1.382447         0.593588
 H        -3.147183        -2.341104         1.270731
 H        -3.717150        -1.600100         2.915017
 H        -4.796342        -2.566600         1.963520
