19
Iteration:  2157
 C         0.735565        -1.135515         0.274515
 C        -0.559641        -0.492799         0.152352
 C        -1.595757         0.186446        -0.098455
 C        -2.747597         1.047481         0.103095
 O        -2.198969         2.406840         0.436104
 C        -3.868822         0.859044         1.129110
 C        -4.543540        -0.635045         1.077413
 C        -3.782961        -1.791416         1.751358
 O        -5.675917        -0.831027         0.646801
 H         1.405746        -0.330325         0.643956
 H         0.624315        -1.927544         1.018496
 H         1.271595        -1.365953        -0.655916
 H        -3.174161         1.358666        -0.931914
 H        -1.382723         2.412664         0.840796
 H        -3.476115         1.019456         2.128948
 H        -4.628070         1.625056         0.936388
 H        -2.884881        -1.498035         2.439491
 H        -4.616648        -2.513837         2.145615
 H        -3.094768        -2.265129         0.956986
