19
Iteration:  4382
 C         0.459357        -1.430844        -0.095451
 C        -0.596570        -0.501902         0.513255
 C        -1.483506         0.299641         0.254455
 C        -2.642407         0.977907        -0.089346
 O        -2.438967         2.464684        -0.015087
 C        -3.632342         0.800716         1.122828
 C        -4.436882        -0.596830         1.226715
 C        -3.692245        -1.712610         1.885079
 O        -5.655405        -0.607718         0.921445
 H         1.392127        -0.970640        -0.446518
 H         0.728584        -2.251486         0.623453
 H        -0.006828        -2.022860        -0.927879
 H        -3.269566         0.661593        -1.055903
 H        -1.502744         2.600443        -0.109294
 H        -3.165186         1.024873         2.039746
 H        -4.377895         1.599739         0.986182
 H        -2.806332        -2.057552         1.334901
 H        -3.130263        -1.545691         2.854474
 H        -4.363155        -2.577789         1.924232
