19
Iteration:  2764
 C         0.312213        -1.525841        -0.359419
 C        -0.557347        -0.417698        -0.179533
 C        -1.441598         0.342353         0.109267
 C        -2.644358         1.143822         0.251679
 O        -2.458083         2.550634         0.102347
 C        -3.637135         0.740500         1.451393
 C        -4.373784        -0.550570         1.410871
 C        -4.385829        -1.600830         2.476457
 O        -4.869206        -0.934533         0.281013
 H         0.559759        -1.833341         0.720407
 H        -0.316715        -2.398689        -0.684370
 H         1.289296        -1.364966        -0.876328
 H        -3.378722         0.885147        -0.615546
 H        -1.957343         2.905855         0.897436
 H        -3.214210         0.846209         2.526709
 H        -4.388690         1.527947         1.295124
 H        -4.406358        -1.298790         3.516257
 H        -5.050264        -2.430762         2.319045
 H        -3.434278        -2.077720         2.337043
