19
Iteration:  1245charge 0 multiplicity 1
 C         1.425525        -0.372347        -0.256322
 C        -0.028478        -0.013803         0.184883
 C        -1.215055         0.253907         0.307987
 C        -2.589551         0.518954         0.177653
 O        -2.706727         1.980162         0.261757
 C        -3.438022         0.092605         1.457772
 C        -4.757396        -0.613867         1.157286
 C        -5.522647        -1.274867         2.390269
 O        -5.093278        -0.849724         0.037837
 H         1.785485         0.121928        -1.139498
 H         2.005166        -0.134163         0.630825
 H         1.422460        -1.466328        -0.295775
 H        -3.094910         0.016036        -0.774750
 H        -2.220895         2.289339        -0.599266
 H        -3.009973        -0.408536         2.311105
 H        -3.855364         1.096130         1.766428
 H        -6.585014        -1.255982         2.122506
 H        -5.227321        -2.384439         2.246666
 H        -5.189589        -0.871624         3.413165
