19
Iteration:  4299
 C         0.940874        -1.128101         0.087272
 C        -0.346695        -0.404293        -0.011789
 C        -1.508798        -0.005890         0.022126
 C        -2.796608         0.716830         0.061248
 O        -2.333816         2.146809         0.018678
 C        -3.731292         0.783160         1.250442
 C        -4.666464        -0.497360         1.324955
 C        -3.817859        -1.580640         1.700120
 O        -5.936404        -0.392868         1.071803
 H         1.782403        -0.519155        -0.329043
 H         1.261491        -1.373385         1.103583
 H         0.968898        -2.060455        -0.542536
 H        -3.291288         0.505137        -0.803299
 H        -1.409944         2.221051         0.351511
 H        -3.184189         0.657103         2.248265
 H        -4.232805         1.745883         1.134845
 H        -2.902314        -1.673848         1.102785
 H        -3.604691        -1.380456         2.743340
 H        -4.262372        -2.593439         1.857053
