19
Iteration:  4632charge 0 multiplicity 1
 C         0.230160        -1.385695        -0.657535
 C        -0.589479        -0.471842         0.045245
 C        -1.495659         0.283282         0.349163
 C        -2.721945         1.032411         0.274394
 O        -2.367976         2.417909         0.072024
 C        -3.746238         0.869301         1.309846
 C        -4.321412        -0.575281         1.362973
 C        -4.484093        -1.343541         2.670870
 O        -4.630084        -1.125132         0.296998
 H         1.275350        -1.187481        -0.496812
 H         0.056686        -2.404226        -0.334172
 H        -0.007688        -1.280912        -1.714076
 H        -3.186292         0.824843        -0.783590
 H        -1.369811         2.554384         0.049854
 H        -3.242101         1.023944         2.285629
 H        -4.628001         1.585125         1.128774
 H        -3.565004        -1.423617         3.211942
 H        -5.139454        -0.738334         3.327994
 H        -4.940903        -2.360166         2.673249
