19
Iteration:  4346
 C         0.728567        -1.350665        -0.070141
 C        -0.450376        -0.526512         0.172393
 C        -1.411646         0.223932         0.318503
 C        -2.689669         0.993661         0.080970
 O        -2.384914         2.444082        -0.108529
 C        -3.759452         0.841740         1.076196
 C        -4.513639        -0.526232         1.229747
 C        -3.935280        -1.857917         1.886893
 O        -5.680526        -0.573559         1.085464
 H         1.646352        -0.669511        -0.437114
 H         1.113755        -1.879287         0.837888
 H         0.542823        -2.047163        -0.876996
 H        -2.918206         0.687345        -0.953532
 H        -1.487192         2.591564         0.054047
 H        -3.548653         1.268907         2.112472
 H        -4.612498         1.348668         0.560784
 H        -3.123850        -2.375935         1.297444
 H        -3.705275        -1.684575         2.974354
 H        -4.785540        -2.540914         1.999111
