19
Iteration:   719
 C         1.305589        -0.373673        -0.464700
 C        -0.046471         0.098483        -0.149304
 C        -1.217476         0.238815         0.135885
 C        -2.601574         0.531670         0.491583
 O        -2.664523         1.947078         0.978084
 C        -3.234254        -0.422035         1.512437
 C        -4.613647        -0.677956         1.036641
 C        -5.787946        -0.286133         1.907395
 O        -4.969264        -1.395864         0.088406
 H         2.058447         0.412727        -0.489967
 H         1.596114        -1.158233         0.274228
 H         1.280942        -0.790212        -1.487913
 H        -3.131506         0.706977        -0.446911
 H        -3.210442         2.516218         0.276434
 H        -2.790404        -1.394846         1.879816
 H        -3.241887         0.202034         2.363830
 H        -5.550906         0.729244         2.386061
 H        -6.735796        -0.132426         1.358145
 H        -6.047013        -1.074467         2.709851
