19
Iteration:  4950charge 0 multiplicity 1
 C         0.625267        -0.871757        -1.038228
 C        -0.594672        -0.597258        -0.315650
 C        -1.629849        -0.104392         0.158427
 C        -2.745704         0.855861         0.290176
 O        -2.376266         2.191571         0.295547
 C        -3.466890         0.639941         1.657517
 C        -4.328643        -0.572994         1.498081
 C        -5.394984        -0.659010         2.530002
 O        -4.222831        -1.385562         0.617762
 H         1.563262        -0.722264        -0.444265
 H         0.441767        -1.843099        -1.581772
 H         0.693442        -0.026200        -1.834829
 H        -3.361672         0.609443        -0.588276
 H        -1.857836         2.467767        -0.487644
 H        -2.836366         0.479460         2.496800
 H        -4.085063         1.587762         1.812015
 H        -4.930825        -0.445942         3.485278
 H        -5.810512         0.384725         2.394909
 H        -6.048717        -1.528876         2.304246
