19
Iteration:  1982charge 0 multiplicity 1
 C         0.319673        -1.457178         0.293187
 C        -0.602510        -0.287970         0.220288
 C        -1.598216         0.448694         0.237700
 C        -2.780388         1.132781         0.271895
 O        -2.525716         2.611278         0.330266
 C        -3.669588         0.666370         1.320572
 C        -4.276716        -0.794467         0.967955
 C        -3.764931        -1.892663         1.888023
 O        -5.201646        -0.740068         0.165653
 H         1.385428        -1.175042         0.278311
 H         0.203495        -2.120953         1.163650
 H         0.082597        -2.121648        -0.549843
 H        -3.309704         0.815377        -0.706824
 H        -2.186764         2.942184        -0.539284
 H        -3.241935         0.811114         2.332942
 H        -4.435682         1.482205         1.289128
 H        -4.542314        -2.744330         1.941372
 H        -2.814543        -2.138177         1.202255
 H        -3.319747        -1.271781         2.773761
