19
Iteration:  2046charge 0 multiplicity 1
 C         0.396794        -1.519502         0.354883
 C        -0.634795        -0.417791         0.288154
 C        -1.471600         0.442271         0.247683
 C        -2.799454         1.097590         0.190548
 O        -2.738166         2.569724         0.208878
 C        -3.723642         0.683300         1.311813
 C        -4.253879        -0.635529         1.031915
 C        -3.673109        -1.899089         1.650105
 O        -5.232178        -0.584605         0.399827
 H         1.439453        -1.167024         0.311881
 H         0.172054        -2.224733         1.128992
 H         0.470246        -2.021998        -0.587101
 H        -3.290623         0.997555        -0.760436
 H        -1.746470         2.805690        -0.042189
 H        -3.160610         0.502830         2.205060
 H        -4.527159         1.407223         1.365325
 H        -3.087261        -2.544565         0.865637
 H        -2.665285        -1.799720         2.205449
 H        -4.464603        -2.518030         2.186343
