19
Iteration:  4764charge 0 multiplicity 1
 C         0.511312        -1.088728        -0.385519
 C        -0.700957        -0.248714        -0.715235
 C        -1.830642         0.081359        -0.398902
 C        -2.825280         0.957492         0.231220
 O        -2.234362         2.360637         0.338785
 C        -3.189043         0.437280         1.565859
 C        -4.335875        -0.693627         1.528689
 C        -5.328970        -0.809345         2.723994
 O        -4.352856        -1.349358         0.431775
 H         1.083183        -0.627223         0.358273
 H         0.146816        -2.044451        -0.043933
 H         1.267342        -1.241625        -1.175638
 H        -3.790617         1.139945        -0.267297
 H        -1.273019         2.232664         0.144953
 H        -2.287198         0.104215         2.061698
 H        -3.384396         1.376474         2.193019
 H        -4.595076        -1.025906         3.518981
 H        -5.776638         0.179012         3.101069
 H        -5.857497        -1.737140         2.674549
