19
Iteration:  4871charge 0 multiplicity 1
 C         0.595271        -1.180824        -1.074766
 C        -0.339387        -0.320426        -0.403550
 C        -1.314428         0.295199         0.006282
 C        -2.549874         0.911859         0.313992
 O        -2.522809         2.324175         0.342992
 C        -3.425585         0.484154         1.510562
 C        -4.474500        -0.675004         1.540204
 C        -5.582100        -0.712496         2.690581
 O        -4.418601        -1.455002         0.660971
 H         1.594693        -1.173449        -0.458319
 H         0.346410        -2.252049        -1.074150
 H         0.815657        -0.918535        -2.126353
 H        -3.142127         0.604153        -0.512593
 H        -1.524894         2.496307         0.319494
 H        -2.774588         0.378018         2.390205
 H        -3.933435         1.445284         1.589956
 H        -5.155536        -0.520155         3.636892
 H        -6.103288         0.095697         2.185331
 H        -6.222892        -1.530570         2.514710
