19
Iteration:   983
 C         1.508092         0.277237         0.423114
 C         0.025630         0.054000         0.184490
 C        -1.158880         0.073545        -0.102392
 C        -2.623952         0.165754        -0.196964
 O        -2.987754         1.349503         0.477712
 C        -3.293588        -0.977659         0.708076
 C        -4.737049        -0.604866         1.090172
 C        -5.038676        -0.285581         2.556182
 O        -5.618379        -0.478568         0.236106
 H         1.966578         1.187104         0.040177
 H         1.677736         0.347008         1.538703
 H         2.090686        -0.642655         0.077385
 H        -2.803759         0.226692        -1.271523
 H        -2.281304         1.945009         0.600972
 H        -3.065605        -2.019964         0.632080
 H        -2.771142        -0.683785         1.685994
 H        -4.667141         0.659308         2.762527
 H        -6.107386        -0.274183         2.645349
 H        -4.831378        -0.955791         3.413299
