19
Iteration:   827
 C         1.486508        -0.199272        -0.120532
 C         0.096597         0.193034         0.049212
 C        -1.123399         0.274748         0.198489
 C        -2.633713         0.370970         0.267877
 O        -2.946048         1.721305         0.744085
 C        -3.228995        -0.790092         1.030786
 C        -4.755279        -0.736444         1.024791
 C        -5.349424         0.000645         2.246715
 O        -5.385858        -1.146144         0.071325
 H         2.018338         0.737424        -0.445164
 H         1.986633        -0.660910         0.774700
 H         1.627987        -0.875718        -1.002184
 H        -3.067465         0.387910        -0.782700
 H        -3.350542         1.686564         1.707991
 H        -3.025955        -1.604504         0.251041
 H        -2.746264        -1.052748         1.971541
 H        -5.003199         1.042953         2.138288
 H        -6.417809         0.175235         2.335438
 H        -4.911828        -0.251959         3.150381
