19
Iteration:  2619charge 0 multiplicity 1
 C         0.120576        -1.554882        -0.035029
 C        -0.729547        -0.379324        -0.156939
 C        -1.747681         0.344519        -0.039803
 C        -2.774257         1.307371         0.140691
 O        -2.246540         2.597196         0.338259
 C        -3.756700         0.716314         1.283759
 C        -4.264516        -0.627368         1.271337
 C        -3.972983        -1.591319         2.380040
 O        -4.828264        -1.076180         0.255411
 H         0.590552        -1.572087         0.983576
 H        -0.340592        -2.592277        -0.138750
 H         1.029125        -1.486234        -0.733755
 H        -3.493993         1.532648        -0.739527
 H        -1.546326         2.594263         0.952931
 H        -3.441820         1.096048         2.333861
 H        -4.620410         1.369752         1.057161
 H        -3.271199        -2.391233         2.143780
 H        -3.603830        -1.183204         3.261295
 H        -4.872949        -2.093356         2.750216
