19
Iteration:  4884charge 0 multiplicity 1
 C         0.657628        -1.218129        -1.140697
 C        -0.266632        -0.284596        -0.453066
 C        -1.202154         0.264717         0.114355
 C        -2.597696         0.875803         0.228704
 O        -2.470233         2.331501         0.310745
 C        -3.506678         0.568009         1.627365
 C        -4.524297        -0.626276         1.581229
 C        -5.627815        -0.763234         2.597523
 O        -4.429198        -1.471877         0.700700
 H         1.691411        -1.319324        -0.712151
 H         0.099605        -2.180731        -1.151203
 H         0.774850        -0.853188        -2.216439
 H        -3.174932         0.664311        -0.646553
 H        -1.587452         2.668299         0.155931
 H        -2.905317         0.557725         2.502655
 H        -4.143413         1.497220         1.825924
 H        -5.329389        -0.672533         3.658550
 H        -6.430715         0.013269         2.675703
 H        -6.034579        -1.763580         2.586365
