19
Iteration:  3701charge 0 multiplicity 1
 C         0.367202        -1.158625         0.184462
 C        -0.782512        -0.476906        -0.218272
 C        -1.865056         0.076534        -0.345215
 C        -2.911458         1.024208        -0.064940
 O        -2.106714         2.255096         0.208919
 C        -3.583363         0.818374         1.333414
 C        -4.388948        -0.537320         1.330705
 C        -3.833797        -1.443880         2.402096
 O        -5.234134        -0.870877         0.574243
 H         0.356165        -2.018953        -0.509904
 H         1.290015        -0.609198        -0.012863
 H         0.306358        -1.645994         1.131930
 H        -3.595993         1.351031        -0.868844
 H        -1.232207         1.950992         0.119020
 H        -2.750289         0.762201         2.015214
 H        -4.097809         1.764458         1.523614
 H        -2.814710        -1.333166         2.589663
 H        -4.349584        -1.304919         3.322213
 H        -3.975799        -2.508281         2.195922
