19
Iteration:  3150
 C         0.721524        -1.024352        -0.584118
 C        -0.652898        -0.542734        -0.367751
 C        -1.647170         0.179328        -0.289378
 C        -2.719249         1.124539         0.091509
 O        -2.143466         2.421645         0.565465
 C        -3.499557         0.539123         1.326011
 C        -4.435972        -0.672002         1.396903
 C        -5.115929        -0.909743         2.750621
 O        -4.724961        -1.531868         0.475835
 H         1.112067        -1.691424         0.176911
 H         0.888107        -1.325803        -1.600960
 H         1.245781        -0.069491        -0.557529
 H        -3.489384         1.382756        -0.731001
 H        -1.202292         2.329414         0.432101
 H        -2.720990         0.175902         2.117618
 H        -3.994504         1.387364         1.760200
 H        -4.600797        -0.462169         3.638576
 H        -6.026686        -0.199060         2.710613
 H        -5.387702        -1.939287         3.018295
