19
Iteration:  4656charge 0 multiplicity 1
 C         0.383269        -1.392734        -0.701349
 C        -0.578468        -0.363878        -0.280205
 C        -1.428481         0.118240         0.457277
 C        -2.756989         0.978307         0.348946
 O        -2.351031         2.479299         0.157282
 C        -3.819424         0.802169         1.388709
 C        -4.349573        -0.623110         1.311632
 C        -4.609144        -1.160572         2.715458
 O        -4.574977        -1.156863         0.291237
 H         1.398106        -1.305336        -0.367238
 H        -0.058596        -2.329934        -0.270947
 H         0.270043        -1.492511        -1.842963
 H        -3.326884         0.728053        -0.679851
 H        -1.527716         2.486356        -0.273556
 H        -3.551816         1.020323         2.443048
 H        -4.730183         1.393713         0.970169
 H        -3.669785        -1.142942         3.306254
 H        -5.273536        -0.489016         3.302533
 H        -5.061360        -2.147587         2.863687
