19
Iteration:   508
 C         1.217265        -0.636148        -0.446657
 C        -0.133253        -0.108400        -0.041676
 C        -1.283522         0.294007         0.160843
 C        -2.658498         0.702918         0.380240
 O        -2.564553         2.168080         0.735924
 C        -3.370346        -0.073543         1.482479
 C        -4.694335        -0.690288         1.082251
 C        -5.630575        -1.002244         2.295929
 O        -4.825443        -0.965369        -0.099728
 H         2.150476        -0.214123         0.001535
 H         1.190460        -1.674416        -0.096153
 H         1.323372        -0.692421        -1.532591
 H        -3.183001         0.750562        -0.578749
 H        -3.542177         2.563842         0.788949
 H        -2.582045        -0.806320         1.591431
 H        -3.381618         0.549861         2.393756
 H        -5.769260        -0.049551         2.927485
 H        -6.493094        -1.613370         1.945609
 H        -5.095531        -1.716351         2.928060
