19
Iteration:  2805
 C         0.503225        -1.354529        -0.456806
 C        -0.660988        -0.602789         0.086505
 C        -1.559480         0.181101         0.029104
 C        -2.738216         1.033680         0.242212
 O        -2.496822         2.460996         0.278663
 C        -3.520137         0.649316         1.376270
 C        -4.265595        -0.646234         1.220310
 C        -4.333581        -1.292293         2.523810
 O        -5.024469        -0.853868         0.277763
 H         1.094448        -1.890758         0.243049
 H         0.115288        -2.099369        -1.141933
 H         1.136666        -0.686595        -1.057789
 H        -3.274404         0.906248        -0.703715
 H        -1.736603         2.656558         0.774321
 H        -2.877378         0.616902         2.275193
 H        -4.389320         1.275818         1.496069
 H        -4.945902        -0.490770         3.074476
 H        -4.816194        -2.263071         2.404488
 H        -3.348623        -1.173559         2.984487
