19
Iteration:   936
 C         1.392923         0.254409         0.396011
 C         0.043323         0.084456        -0.001476
 C        -1.177743         0.008411        -0.056076
 C        -2.696176         0.157588        -0.070457
 O        -2.708532         1.600676         0.566747
 C        -3.319917        -1.037231         0.731776
 C        -4.810702        -0.697883         1.086709
 C        -5.107570        -0.109043         2.566825
 O        -5.551442        -0.671327         0.142950
 H         1.813019         1.246631         0.173206
 H         1.421341         0.252726         1.510545
 H         2.043835        -0.559926         0.024121
 H        -2.963733         0.040046        -1.098586
 H        -3.284163         1.470109         1.398398
 H        -3.177112        -1.911437         0.024247
 H        -2.508115        -1.144995         1.476008
 H        -4.887557         1.006995         2.557201
 H        -6.055404        -0.417508         3.019498
 H        -4.430216        -0.623968         3.217325
