19
Iteration:  2646
 C         0.112233        -1.493528         0.065428
 C        -0.848342        -0.523216        -0.295824
 C        -1.699289         0.349525        -0.070836
 C        -2.812760         1.252788         0.136756
 O        -2.243001         2.672083         0.282570
 C        -3.757657         0.885408         1.481228
 C        -4.224975        -0.649406         1.285845
 C        -4.045325        -1.698731         2.341590
 O        -4.743280        -1.092829         0.204052
 H         0.566648        -1.561287         1.070074
 H        -0.233998        -2.497868        -0.138519
 H         0.911731        -1.347741        -0.639676
 H        -3.480141         1.378058        -0.665859
 H        -1.374975         2.533586         0.548689
 H        -3.142384         1.024298         2.341198
 H        -4.431360         1.728023         1.639118
 H        -3.060821        -2.168235         2.545313
 H        -4.160624        -1.079708         3.358800
 H        -4.771253        -2.557355         2.317678
