19
Iteration:  1712
 C         0.431546        -1.216284         0.062217
 C        -0.829187        -0.551304         0.028048
 C        -1.593691         0.441766         0.161257
 C        -2.856538         1.210914         0.275043
 O        -2.546863         2.696447         0.424340
 C        -3.688448         0.639448         1.541808
 C        -4.191178        -0.794324         1.043851
 C        -4.506223        -1.869660         2.124062
 O        -4.400099        -0.871366        -0.131289
 H         1.191413        -0.916837        -0.593037
 H         0.833827        -1.190390         1.091654
 H         0.179350        -2.311068        -0.051256
 H        -3.330713         1.139881        -0.699568
 H        -1.641608         2.560239         0.598774
 H        -3.273514         0.412751         2.512036
 H        -4.510564         1.357356         1.686469
 H        -4.336266        -3.007857         2.083559
 H        -3.815792        -1.728513         2.991470
 H        -5.602612        -1.640499         2.348668
