19
Iteration:   383
 C         1.307916        -0.690496        -0.063687
 C        -0.104385        -0.258212        -0.032725
 C        -1.179777         0.335540         0.057907
 C        -2.653470         0.714763         0.085640
 O        -2.823901         2.192047         0.326431
 C        -3.264499        -0.079715         1.375059
 C        -4.669040        -0.673201         1.209082
 C        -5.223091        -1.718409         2.248929
 O        -5.329927        -0.212120         0.277107
 H         1.974940        -0.199183         0.656623
 H         1.373809        -1.786550         0.136697
 H         1.825683        -0.443933        -1.041090
 H        -3.336025         0.591707        -0.730213
 H        -1.942726         2.569138         0.749496
 H        -2.723680        -0.817543         1.877394
 H        -3.365890         0.758667         2.115252
 H        -5.391049        -1.110313         3.116233
 H        -6.261997        -1.993284         1.975774
 H        -4.549557        -2.607472         2.427203
