19
Iteration:  3388
 C         0.463249        -1.299077        -0.456856
 C        -0.692856        -0.419493        -0.210413
 C        -1.771353         0.231220        -0.243161
 C        -2.909724         1.095748         0.101014
 O        -2.299406         2.270213         0.573639
 C        -3.636920         0.665581         1.333683
 C        -4.224911        -0.618815         1.322726
 C        -4.740820        -1.041676         2.751117
 O        -4.418272        -1.217746         0.298025
 H         0.309840        -2.360935        -0.082632
 H         0.790025        -1.552259        -1.493667
 H         1.391310        -0.917117         0.002334
 H        -3.578172         1.244878        -0.772429
 H        -1.446924         2.382880         0.121005
 H        -3.112043         0.941891         2.257852
 H        -4.570970         1.344163         1.168421
 H        -3.876772        -1.328152         3.339888
 H        -4.969165        -0.057789         3.142465
 H        -5.551203        -1.730506         2.705567
