19
Iteration:  3060
 C         0.671351        -1.083454        -0.812814
 C        -0.518999        -0.595071        -0.081865
 C        -1.499228         0.150274         0.061053
 C        -2.763348         0.951023         0.257085
 O        -2.573736         2.357619         0.132981
 C        -3.320881         0.500254         1.663545
 C        -4.461218        -0.526578         1.382519
 C        -5.164069        -1.005680         2.654606
 O        -4.523640        -1.100436         0.314979
 H         1.075170        -1.882102        -0.190546
 H         0.569244        -1.467788        -1.829511
 H         1.443066        -0.358521        -0.874308
 H        -3.530582         0.684798        -0.470885
 H        -1.663142         2.557605         0.525875
 H        -2.673563        -0.137249         2.368050
 H        -3.534840         1.309882         2.322617
 H        -4.683183        -0.427574         3.480924
 H        -6.270293        -0.855915         2.658630
 H        -4.763840        -2.051655         2.855466
