19
Iteration:  1176
 C         1.454449        -0.040655         0.047634
 C         0.008399        -0.065306         0.049208
 C        -1.203785         0.050726         0.083637
 C        -2.637265         0.399206         0.086963
 O        -2.709425         1.856562         0.051035
 C        -3.358411        -0.176670         1.321024
 C        -4.720533        -0.597691         1.246141
 C        -5.564247        -1.204904         2.502946
 O        -5.208042        -0.594275         0.115924
 H         1.944647         0.604841        -0.666839
 H         1.683592         0.276290         1.090891
 H         1.788736        -1.110910         0.046524
 H        -3.223893         0.121788        -0.867195
 H        -2.538523         2.028855         1.052686
 H        -2.667710        -1.044375         1.515596
 H        -2.967919         0.486967         2.139598
 H        -6.083128        -0.239575         2.843306
 H        -6.329030        -1.970085         2.212978
 H        -4.954281        -1.552789         3.396016
