19
Iteration:  3293charge 0 multiplicity 1
 C         0.350466        -1.303040        -0.859479
 C        -0.380892        -0.346797        -0.032423
 C        -1.519104         0.118807         0.177443
 C        -2.792878         0.944156         0.284396
 O        -2.587628         2.378619         0.326477
 C        -3.487101         0.680511         1.543268
 C        -4.336343        -0.568430         1.333407
 C        -5.076749        -0.904413         2.515631
 O        -4.225944        -1.267795         0.375892
 H         0.329231        -2.255418        -0.366596
 H        -0.071152        -1.496829        -1.820450
 H         1.400575        -1.197991        -1.068092
 H        -3.395736         0.606352        -0.473587
 H        -2.046702         2.729052        -0.320015
 H        -2.850356         0.281248         2.366711
 H        -4.050786         1.513644         1.781461
 H        -4.462774        -1.615836         3.145378
 H        -5.215551        -0.039796         3.203534
 H        -5.954744        -1.570756         2.288696
