19
Iteration:  1540charge 0 multiplicity 1
 C         0.827321        -0.920185        -0.250979
 C        -0.473639        -0.309458         0.193720
 C        -1.621549         0.108761         0.381963
 C        -2.821504         1.085006         0.346024
 O        -2.452288         2.469093         0.608925
 C        -3.888375         0.672908         1.269121
 C        -4.426470        -0.751514         0.985535
 C        -4.794095        -1.561616         2.259969
 O        -4.517605        -1.162313        -0.140789
 H         1.380512        -0.602189        -1.165196
 H         1.486484        -0.691857         0.617395
 H         0.543297        -2.021451        -0.342129
 H        -3.284149         1.105073        -0.669918
 H        -1.687495         2.596610        -0.073504
 H        -3.409120         0.681241         2.277661
 H        -4.658219         1.486969         1.185808
 H        -5.309318        -0.924879         3.017998
 H        -5.378286        -2.418837         1.994147
 H        -4.048111        -1.829700         2.954239
