19
Iteration:   348
 C         1.317635        -0.635005        -0.021147
 C        -0.037890        -0.028186        -0.047371
 C        -1.233540         0.177728         0.079558
 C        -2.627288         0.560526         0.213084
 O        -2.694988         2.031528         0.181881
 C        -3.258692        -0.058976         1.470520
 C        -4.722957        -0.458547         1.218291
 C        -5.033622        -1.749491         2.054668
 O        -5.568315        -0.055937         0.384242
 H         1.897527        -0.313060         0.883853
 H         1.169900        -1.749054         0.072570
 H         1.822086        -0.593138        -1.009480
 H        -3.241473         0.156710        -0.610678
 H        -3.627500         2.093605         0.520408
 H        -2.637333        -0.999006         1.602875
 H        -3.058445         0.546398         2.356592
 H        -4.833711        -1.488315         3.110901
 H        -6.058904        -2.121825         1.902197
 H        -4.354856        -2.620675         2.006607
