19
Iteration:  4143charge 0 multiplicity 1
 C         0.916184        -1.216033         0.234031
 C        -0.327518        -0.437046         0.056361
 C        -1.331812         0.243697         0.190741
 C        -2.680043         0.878995         0.008926
 O        -2.699337         2.305968        -0.388702
 C        -3.442869         0.592119         1.453748
 C        -4.548885        -0.517599         1.410120
 C        -4.105472        -1.909722         1.621595
 O        -5.794710        -0.253193         1.136425
 H         1.561001        -0.898796        -0.563683
 H         1.369149        -1.012373         1.231118
 H         0.710325        -2.310485         0.069867
 H        -3.062435         0.472376        -0.871903
 H        -2.144004         2.403351        -1.146516
 H        -2.743645         0.189683         2.210831
 H        -3.901099         1.524223         1.892138
 H        -3.260467        -2.046169         1.003872
 H        -3.784684        -2.003623         2.640225
 H        -4.909054        -2.562646         1.392932
