19
Iteration:   834
 C         1.448982        -0.156010        -0.088313
 C         0.086755         0.191155         0.055566
 C        -1.107830         0.233672         0.159880
 C        -2.545162         0.383019         0.300668
 O        -2.980269         1.723093         0.716521
 C        -3.221670        -0.822958         0.951798
 C        -4.732529        -0.742320         1.058199
 C        -5.329205         0.019087         2.237620
 O        -5.460479        -1.106623         0.094340
 H         2.017589         0.737992        -0.431281
 H         1.808127        -0.583775         0.833101
 H         1.653486        -0.830750        -0.902194
 H        -2.921994         0.176021        -0.684574
 H        -2.832849         1.798945         1.732904
 H        -2.963107        -1.709345         0.350810
 H        -2.761254        -1.116542         1.920854
 H        -5.112781         1.124049         2.183769
 H        -6.432141        -0.195723         2.192677
 H        -4.893067        -0.377673         3.236660
