19
Iteration:  2247
 C         0.827221        -1.115209        -0.032361
 C        -0.438867        -0.551320         0.266293
 C        -1.471410         0.153530         0.429261
 C        -2.608608         1.009558         0.174153
 O        -2.418057         2.430545         0.113878
 C        -3.812028         0.807838         1.270179
 C        -4.604736        -0.647992         1.180125
 C        -3.915538        -1.833340         1.790359
 O        -5.679367        -0.670992         0.511925
 H         1.590000        -0.596935         0.461010
 H         1.069190        -2.188197         0.054111
 H         0.826376        -0.940199        -1.130644
 H        -3.114389         0.738013        -0.774071
 H        -1.735781         2.650370         0.686201
 H        -3.369450         1.046214         2.229942
 H        -4.558138         1.600423         1.069158
 H        -4.706615        -2.503752         2.295981
 H        -3.188648        -2.357304         1.044194
 H        -3.272861        -1.286647         2.637028
