19
Iteration:  1132charge 0 multiplicity 1
 C         1.480791        -0.050911         0.242453
 C         0.035961         0.057173         0.018423
 C        -1.151204         0.265895        -0.079075
 C        -2.563055         0.251003         0.132215
 O        -2.994654         1.628560         0.154187
 C        -3.170618        -0.432212         1.294249
 C        -4.751652        -0.693717         1.116280
 C        -5.375911        -0.900675         2.484304
 O        -5.401755        -0.437206         0.142648
 H         1.959953         0.570906        -0.529624
 H         1.826831         0.246246         1.246721
 H         1.928631        -1.054403         0.102132
 H        -3.111849        -0.168322        -0.809138
 H        -2.089804         2.066019         0.034827
 H        -2.768885        -1.489367         1.320188
 H        -2.980125         0.033906         2.294453
 H        -5.195543        -0.091583         3.292260
 H        -6.446660        -1.077038         2.308092
 H        -5.131969        -1.880546         2.975734
