19
Iteration:  3066charge 0 multiplicity 1
 C         0.677601        -1.061805        -0.795519
 C        -0.517488        -0.528484        -0.107965
 C        -1.529851         0.122660         0.028954
 C        -2.789744         0.873380         0.259539
 O        -2.543449         2.340580         0.166929
 C        -3.345541         0.510387         1.647845
 C        -4.433299        -0.546572         1.373085
 C        -5.152646        -0.978401         2.658411
 O        -4.514757        -1.077114         0.316566
 H         1.017883        -1.949271        -0.210891
 H         0.405520        -1.573852        -1.751424
 H         1.577570        -0.371534        -0.806538
 H        -3.510368         0.685943        -0.553878
 H        -1.644312         2.444896         0.620562
 H        -2.578599         0.032233         2.236089
 H        -3.677885         1.394368         2.291735
 H        -4.679639        -0.461631         3.505911
 H        -6.234237        -0.936550         2.694626
 H        -4.917646        -1.997585         2.968398
