19
Iteration:   204charge 0 multiplicity 1
 C         1.602561        -0.175629         0.049621
 C         0.115297        -0.068662         0.071329
 C        -1.092167         0.054805        -0.055506
 C        -2.611116         0.151878         0.036215
 O        -3.057706         1.578455        -0.280339
 C        -3.168203        -0.368504         1.377977
 C        -4.734739        -0.383782         1.430474
 C        -5.462314        -1.714831         1.763625
 O        -5.430822         0.587623         1.176018
 H         2.024645         0.254214         1.039908
 H         1.985084        -1.239631        -0.026415
 H         2.047775         0.524155        -0.696196
 H        -3.102113        -0.423014        -0.761649
 H        -3.010345         2.058151         0.529062
 H        -2.765657        -1.483774         1.452732
 H        -2.954803         0.165721         2.274918
 H        -5.128580        -2.251197         2.719812
 H        -6.549214        -1.684222         1.520670
 H        -4.821895        -2.305388         1.053598
