19
Iteration:  3167charge 0 multiplicity 1
 C         0.638583        -0.966225        -0.599488
 C        -0.668865        -0.427195        -0.268617
 C        -1.735548         0.122789        -0.291861
 C        -2.753866         1.040750         0.163717
 O        -2.228989         2.297967         0.606457
 C        -3.439567         0.500810         1.355289
 C        -4.282717        -0.776785         1.388816
 C        -5.018058        -0.706506         2.671599
 O        -4.688050        -1.470764         0.402311
 H         0.880027        -1.829507         0.080212
 H         0.565269        -1.508209        -1.588511
 H         1.566898        -0.364004        -0.540121
 H        -3.363986         1.290591        -0.684089
 H        -1.291054         2.343387         0.340886
 H        -2.733561         0.468142         2.133321
 H        -4.250469         1.258039         1.635100
 H        -4.423884        -0.359158         3.503239
 H        -5.928329        -0.130628         2.675030
 H        -5.488765        -1.701087         2.786316
