19
Iteration:  3192
 C         0.598743        -1.103131        -0.641382
 C        -0.542669        -0.263161        -0.318104
 C        -1.714947         0.140921        -0.220046
 C        -2.839785         0.963410         0.162766
 O        -2.307214         2.200180         0.570663
 C        -3.477461         0.534563         1.448292
 C        -4.422125        -0.647327         1.385490
 C        -5.076399        -0.767585         2.731334
 O        -4.432023        -1.378847         0.323557
 H         0.677365        -1.896484         0.142311
 H         0.582186        -1.644065        -1.576371
 H         1.571255        -0.670666        -0.536356
 H        -3.440363         1.079428        -0.671669
 H        -1.532993         2.461842        -0.046966
 H        -2.642078         0.159192         2.071254
 H        -3.982532         1.354795         1.920868
 H        -4.357993        -0.487850         3.551902
 H        -5.886972         0.018989         2.855667
 H        -5.720800        -1.649189         2.913044
