19
Iteration:  2099charge 0 multiplicity 1
 C         0.561241        -1.305232         0.378059
 C        -0.670572        -0.442770         0.202359
 C        -1.699497         0.274994         0.063115
 C        -2.882365         1.154417         0.161255
 O        -2.328875         2.491262         0.240589
 C        -3.782903         0.722317         1.417514
 C        -4.382061        -0.641583         1.087389
 C        -3.583563        -1.844845         1.558493
 O        -5.457252        -0.737561         0.475963
 H         1.464411        -0.742300         0.793586
 H         0.372372        -2.033628         1.205117
 H         0.802098        -1.961490        -0.473848
 H        -3.446114         1.268591        -0.806163
 H        -1.309953         2.570786         0.035257
 H        -3.304395         0.875445         2.410086
 H        -4.641252         1.400885         1.321322
 H        -2.543802        -1.729218         1.310090
 H        -3.704527        -1.810533         2.657663
 H        -4.136296        -2.706567         1.179595
