19
Iteration:  4407charge 0 multiplicity 1
 C         0.437189        -1.631548         0.081476
 C        -0.562886        -0.533354         0.224136
 C        -1.507917         0.259700         0.144786
 C        -2.694429         1.041510         0.157724
 O        -2.467185         2.506461        -0.030750
 C        -3.777144         0.876000         1.276503
 C        -4.482484        -0.517101         1.251217
 C        -3.551816        -1.532677         1.765307
 O        -5.548898        -0.750052         0.830480
 H         1.337479        -1.144921        -0.125039
 H         0.608212        -2.328834         0.904385
 H         0.242006        -2.267458        -0.814884
 H        -3.328008         0.722612        -0.853424
 H        -1.657866         2.530976        -0.481410
 H        -3.323230         0.924480         2.274364
 H        -4.493524         1.666896         1.261656
 H        -2.626867        -1.737662         1.225233
 H        -3.043765        -1.300257         2.689282
 H        -4.089326        -2.515852         1.839431
