19
Iteration:  1993
 C         0.279680        -1.477577         0.283007
 C        -0.579042        -0.363137         0.263694
 C        -1.464047         0.474141         0.306596
 C        -2.767768         1.209146         0.159579
 O        -2.585583         2.622003         0.296897
 C        -3.674478         0.675781         1.369868
 C        -4.308162        -0.730766         1.005917
 C        -3.764436        -1.886802         1.797716
 O        -5.225139        -0.767736         0.195014
 H         1.309386        -1.094074         0.253909
 H         0.149345        -2.040437         1.212846
 H         0.199859        -2.089997        -0.624820
 H        -3.318191         1.019198        -0.818910
 H        -2.173763         2.855646        -0.627416
 H        -3.001992         0.574727         2.227057
 H        -4.603648         1.257462         1.550641
 H        -4.286768        -2.902886         1.894697
 H        -2.700620        -2.182648         1.422270
 H        -3.554708        -1.664581         2.916618
