19
Iteration:  3993
 C         0.620743        -1.068624         0.327623
 C        -0.676777        -0.479418         0.231766
 C        -1.725721        -0.040967        -0.194895
 C        -2.837598         0.893883        -0.113490
 O        -2.190635         2.268921        -0.009882
 C        -3.618577         0.724321         1.165538
 C        -4.390925        -0.518430         1.294029
 C        -3.711420        -1.827203         1.628586
 O        -5.631215        -0.409640         1.225474
 H         1.042468        -1.043409        -0.665396
 H         1.208927        -0.421503         1.041612
 H         0.456167        -2.153323         0.734361
 H        -3.400356         0.900743        -1.038165
 H        -2.717800         2.923784        -0.485853
 H        -2.850076         0.781046         1.954304
 H        -4.223369         1.663299         1.209161
 H        -2.995574        -2.349562         0.786831
 H        -3.068213        -1.519936         2.528723
 H        -4.517572        -2.539857         1.949623
