19
Iteration:  1647charge 0 multiplicity 1
 C         0.442588        -1.212157         0.129851
 C        -0.628242        -0.196751         0.002361
 C        -1.571643         0.497653        -0.002686
 C        -2.793456         1.176106         0.188183
 O        -2.501142         2.598883         0.530639
 C        -3.612064         0.459813         1.416852
 C        -4.254171        -0.768632         1.012690
 C        -4.670884        -1.750522         2.310543
 O        -4.491376        -1.018741        -0.195934
 H         1.151310        -1.186449        -0.621776
 H         0.740799        -1.198160         1.194155
 H        -0.223363        -2.126079         0.141290
 H        -3.669991         1.124177        -0.547039
 H        -1.901489         2.554726         1.383648
 H        -2.973992         0.348746         2.307799
 H        -4.401901         1.117697         1.766823
 H        -5.482734        -2.509632         2.026481
 H        -3.786130        -2.441379         2.464323
 H        -4.773794        -1.231079         3.318804
