19
Iteration:  3411
 C         0.356867        -1.175011        -0.295802
 C        -0.841609        -0.464296        -0.147637
 C        -1.897281         0.064093        -0.365843
 C        -2.830216         1.157636         0.057503
 O        -2.087260         2.345432         0.510988
 C        -3.645846         0.723289         1.372327
 C        -4.267403        -0.632762         1.306430
 C        -4.673291        -1.166120         2.707905
 O        -4.448549        -1.253707         0.325493
 H         0.390188        -2.271521        -0.116568
 H         0.715232        -1.142145        -1.334589
 H         1.156810        -0.613576         0.215994
 H        -3.534223         1.431573        -0.775636
 H        -1.511974         2.739979        -0.225587
 H        -2.867507         0.627467         2.174263
 H        -4.348733         1.584847         1.583365
 H        -3.728626        -1.267315         3.208262
 H        -5.162694        -0.387568         3.251291
 H        -5.208045        -2.086879         2.528274
