19
Iteration:  4551charge 0 multiplicity 1
 C         0.234817        -1.496734         0.048747
 C        -0.788159        -0.540647        -0.342859
 C        -1.721687         0.174365        -0.155126
 C        -2.788564         1.089131         0.119197
 O        -2.455375         2.561871         0.114209
 C        -3.565152         0.840737         1.504346
 C        -4.263765        -0.516111         1.376646
 C        -3.967453        -1.548777         2.456791
 O        -4.871177        -0.896786         0.295148
 H         1.167309        -1.079426         0.445824
 H        -0.160073        -2.135616         0.838480
 H         0.577125        -2.188281        -0.704622
 H        -3.549289         0.935174        -0.731680
 H        -2.009650         2.836562         0.933913
 H        -2.943294         0.978070         2.421830
 H        -4.279518         1.622134         1.546787
 H        -2.888151        -1.914168         2.420659
 H        -4.108475        -1.109056         3.439933
 H        -4.540814        -2.415673         2.234833
