19
Iteration:  4272
 C         0.889873        -0.888495         0.137788
 C        -0.514300        -0.489584         0.093031
 C        -1.701313        -0.192398         0.026835
 C        -2.793626         0.782935        -0.000060
 O        -2.247242         2.167262        -0.061558
 C        -3.637848         0.792654         1.226753
 C        -4.560400        -0.485171         1.375899
 C        -3.949526        -1.824945         1.686062
 O        -5.698680        -0.300456         1.114239
 H         1.383207        -0.065050        -0.397082
 H         1.340345        -1.006163         1.138886
 H         1.041280        -1.820597        -0.398806
 H        -3.382308         0.691861        -1.009287
 H        -1.306452         2.152440         0.280525
 H        -3.086020         0.909741         2.123132
 H        -4.347882         1.620134         1.119400
 H        -3.088378        -2.043808         1.026336
 H        -3.758876        -1.922381         2.817138
 H        -4.762377        -2.530612         1.432464
