19
Iteration:  2917
 C         0.708706        -1.088082        -0.391631
 C        -0.657615        -0.619478        -0.227688
 C        -1.678779         0.090471        -0.262988
 C        -2.740604         1.028997         0.140126
 O        -2.341789         2.437443         0.326969
 C        -3.353350         0.518024         1.477097
 C        -4.416436        -0.508588         1.396002
 C        -4.828318        -1.215781         2.642129
 O        -4.893242        -1.055520         0.318661
 H         1.286390        -1.495334         0.423840
 H         0.817417        -1.544847        -1.357942
 H         1.154199        -0.156082        -0.661963
 H        -3.621749         1.029602        -0.577037
 H        -1.326774         2.433635         0.496012
 H        -2.659592         0.119259         2.280209
 H        -3.819473         1.303334         2.041024
 H        -5.047333        -0.537694         3.487681
 H        -5.704335        -1.837684         2.623158
 H        -3.998068        -1.715849         3.137162
