19
Iteration:  3423
 C         0.469324        -1.189207        -0.267128
 C        -0.962002        -0.524625        -0.215238
 C        -1.992569         0.104943        -0.269460
 C        -2.854052         1.252839         0.100476
 O        -1.997024         2.393786         0.437041
 C        -3.560979         0.741872         1.316063
 C        -4.366674        -0.579903         1.352486
 C        -4.629959        -1.246972         2.646988
 O        -4.466163        -1.305486         0.330590
 H         0.416386        -2.190476         0.155534
 H         0.891256        -1.090468        -1.243989
 H         1.079253        -0.701265         0.505082
 H        -3.588780         1.575285        -0.721307
 H        -1.704066         2.680621        -0.467205
 H        -2.800873         0.661374         2.155701
 H        -4.261859         1.457644         1.783964
 H        -3.720588        -1.407138         3.191926
 H        -5.291464        -0.705141         3.285202
 H        -5.102250        -2.232263         2.607857
