19
Iteration:    27charge 0 multiplicity 1
 C         1.443330         0.175434         0.018916
 C        -0.008736         0.099331         0.153942
 C        -1.154646        -0.245526         0.018197
 C        -2.591638        -0.293693         0.059613
 O        -3.218709         0.924671        -0.530565
 C        -3.101535        -0.251934         1.487835
 C        -4.610843        -0.153438         1.492453
 C        -5.463475        -1.367392         0.940455
 O        -5.098278         0.776022         2.091197
 H         1.814438         0.369034         1.034475
 H         1.974883        -0.649535        -0.502513
 H         1.701617         1.099537        -0.579375
 H        -2.905878        -1.231748        -0.532032
 H        -3.215699         0.980746        -1.560464
 H        -2.795751        -1.018941         2.162178
 H        -2.610775         0.670561         1.918971
 H        -5.243842        -2.333576         1.392292
 H        -6.471091        -1.206620         1.349281
 H        -5.615055        -1.248076        -0.145671
