19
Iteration:  3353charge 0 multiplicity 1
 C         0.497879        -1.418791        -0.644760
 C        -0.641923        -0.459174        -0.443196
 C        -1.490979         0.249244         0.110664
 C        -2.601724         1.173956         0.240029
 O        -2.405630         2.589489         0.414024
 C        -3.609276         0.757818         1.317340
 C        -4.437613        -0.645076         1.292659
 C        -4.938443        -1.130279         2.705973
 O        -4.476539        -1.457195         0.459318
 H         0.292160        -2.260695         0.090152
 H         0.685758        -1.591835        -1.744136
 H         1.306371        -0.836153        -0.157248
 H        -3.324536         1.067125        -0.555442
 H        -1.530388         2.795290         0.069624
 H        -3.355736         0.827567         2.373587
 H        -4.409338         1.636652         1.301231
 H        -4.079570        -1.697198         3.112219
 H        -5.257259        -0.426061         3.492195
 H        -5.801133        -1.792488         2.611168
