19
Iteration:  4937charge 0 multiplicity 1
 C         0.608031        -0.924814        -1.152101
 C        -0.549731        -0.511925        -0.313318
 C        -1.503973         0.023226         0.267339
 C        -2.742018         0.796533         0.361903
 O        -2.348081         2.205467         0.278365
 C        -3.526785         0.611159         1.559243
 C        -4.343021        -0.613931         1.569086
 C        -5.453818        -0.615090         2.581981
 O        -4.220583        -1.377836         0.565819
 H         1.547024        -0.973389        -0.472382
 H         0.653584        -1.954154        -1.545117
 H         0.786231        -0.228007        -2.004734
 H        -3.454107         0.565833        -0.498217
 H        -1.973273         2.286480        -0.614813
 H        -2.820765         0.576589         2.418384
 H        -4.166031         1.450806         1.827687
 H        -5.339615        -0.743109         3.624859
 H        -6.149127         0.209559         2.356169
 H        -6.087406        -1.461978         2.444027
