19
Iteration:   191charge 0 multiplicity 1
 C         1.589354        -0.099439         0.064453
 C         0.075617        -0.118152         0.062899
 C        -1.135323         0.044238         0.041178
 C        -2.623293         0.187992        -0.011752
 O        -2.968465         1.551009        -0.315110
 C        -3.201097        -0.401837         1.358951
 C        -4.749201        -0.435152         1.401501
 C        -5.436952        -1.703950         1.694543
 O        -5.346200         0.633366         1.281610
 H         1.923874         0.278419         1.049252
 H         2.088057        -1.066981        -0.128828
 H         1.930900         0.537983        -0.768309
 H        -3.009446        -0.461740        -0.778532
 H        -3.886207         1.638833         0.201258
 H        -2.768966        -1.434139         1.449957
 H        -2.727094         0.141585         2.171176
 H        -5.342173        -1.800041         2.782800
 H        -6.537479        -1.642992         1.553788
 H        -5.154724        -2.609259         1.188051
