19
Iteration:  4485
 C         0.200987        -1.459126         0.312164
 C        -0.931674        -0.590549         0.183348
 C        -1.800842         0.167276        -0.315159
 C        -2.843905         1.247950        -0.052060
 O        -2.280414         2.669709         0.159088
 C        -3.496826         0.720786         1.293736
 C        -4.302084        -0.599476         1.233573
 C        -3.524089        -1.665314         2.121845
 O        -5.275969        -0.821271         0.599165
 H         1.137768        -0.931431         0.334818
 H         0.045784        -2.048145         1.199685
 H         0.174325        -2.119632        -0.529197
 H        -3.724483         1.336711        -0.808970
 H        -1.688790         2.578371        -0.595215
 H        -2.673427         0.505296         1.998665
 H        -4.217273         1.410836         1.712118
 H        -2.682307        -2.085580         1.537248
 H        -3.251264        -1.323684         3.105884
 H        -4.131777        -2.553581         2.096964
