19
Iteration:    22charge 0 multiplicity 1
 C         1.479503         0.193603         0.017507
 C         0.012821         0.099898         0.140587
 C        -1.176939        -0.250386         0.021703
 C        -2.618611        -0.302380         0.091703
 O        -3.269897         0.882930        -0.562400
 C        -3.113269        -0.197042         1.507124
 C        -4.618690        -0.144879         1.462819
 C        -5.471780        -1.304148         0.921660
 O        -5.080446         0.725822         2.128052
 H         1.969969         0.293309         0.999886
 H         1.908046        -0.693492        -0.451187
 H         1.760726         1.075704        -0.542607
 H        -2.937100        -1.166996        -0.448163
 H        -2.786420         0.985848        -1.421910
 H        -2.750562        -1.086356         2.114320
 H        -2.705984         0.729198         1.888110
 H        -5.044012        -2.295503         1.214659
 H        -6.446084        -1.112118         1.378555
 H        -5.574839        -1.410318        -0.175222
