19
Iteration:  3073charge 0 multiplicity 1
 C         0.679900        -1.087703        -0.729229
 C        -0.494204        -0.431169        -0.185089
 C        -1.594011         0.102135        -0.010145
 C        -2.768516         0.838531         0.275786
 O        -2.500366         2.295012         0.211258
 C        -3.395433         0.520035         1.604131
 C        -4.381382        -0.560957         1.464434
 C        -5.124878        -0.961039         2.689969
 O        -4.528536        -1.076605         0.276707
 H         1.047362        -1.971421        -0.202210
 H         0.286957        -1.370963        -1.706130
 H         1.494534        -0.384081        -0.883951
 H        -3.502841         0.621180        -0.594223
 H        -1.680344         2.433376         0.670094
 H        -2.443230         0.161570         2.157449
 H        -3.885451         1.395019         1.988300
 H        -4.882628        -0.314192         3.530432
 H        -6.230118        -0.875373         2.608575
 H        -5.059385        -2.054481         2.813027
