19
Iteration:   710charge 0 multiplicity 1
 C         1.316883        -0.349893        -0.508391
 C        -0.031656         0.021526        -0.136919
 C        -1.196870         0.253126         0.115074
 C        -2.578496         0.606478         0.490127
 O        -2.683813         1.957907         1.003914
 C        -3.254779        -0.365502         1.533744
 C        -4.705099        -0.771952         1.085282
 C        -5.868087        -0.269398         1.926157
 O        -4.902998        -1.390514         0.062417
 H         2.066472         0.403832        -0.455620
 H         1.529351        -1.155712         0.200826
 H         1.304861        -0.830037        -1.505317
 H        -3.231026         0.392333        -0.372506
 H        -2.575706         2.478812         0.105626
 H        -2.633219        -1.266259         1.604118
 H        -3.246783         0.151653         2.482914
 H        -5.576087         0.723459         2.342617
 H        -6.758679        -0.238785         1.252745
 H        -5.939666        -1.080373         2.751998
