19
Iteration:  2472charge 0 multiplicity 1
 C         0.410823        -1.352037        -0.034877
 C        -0.796797        -0.674864         0.153079
 C        -1.644731         0.217836         0.162238
 C        -2.755324         1.095968         0.191163
 O        -2.471157         2.568905         0.247282
 C        -3.763735         0.921386         1.328976
 C        -4.289944        -0.660630         1.132988
 C        -3.714873        -1.649605         2.125650
 O        -5.179445        -0.855824         0.313770
 H         1.077372        -1.295275         0.827240
 H         0.221634        -2.392374        -0.187514
 H         0.891919        -1.077849        -0.947493
 H        -3.317910         0.977082        -0.714518
 H        -1.504129         2.537369         0.599906
 H        -3.405257         1.283133         2.285030
 H        -4.566663         1.610800         1.012947
 H        -4.287022        -1.514624         3.045283
 H        -3.650020        -2.661341         1.736963
 H        -2.689937        -1.460869         2.166810
