19
Iteration:   724
 C         1.283817        -0.395955        -0.433585
 C        -0.061516         0.154077        -0.158133
 C        -1.228116         0.230714         0.159762
 C        -2.589351         0.506823         0.456587
 O        -2.661523         1.937072         0.957327
 C        -3.215380        -0.439093         1.503577
 C        -4.640820        -0.669498         1.001728
 C        -5.718635        -0.252466         1.907711
 O        -4.982377        -1.388559         0.102468
 H         2.011018         0.439550        -0.423485
 H         1.778426        -1.115904         0.220303
 H         1.323708        -0.829567        -1.442678
 H        -3.116703         0.592132        -0.514309
 H        -3.490750         2.334367         0.661078
 H        -2.776539        -1.376949         1.752486
 H        -3.355893         0.229093         2.425436
 H        -5.643096         0.584129         2.598656
 H        -6.654089        -0.143784         1.335145
 H        -5.995196        -0.956191         2.701975
