19
Iteration:  1532charge 0 multiplicity 1
 C         0.844466        -0.906618        -0.216196
 C        -0.475634        -0.309107         0.116319
 C        -1.612217         0.113657         0.378290
 C        -2.860641         0.996895         0.368585
 O        -2.392859         2.531471         0.549058
 C        -3.962753         0.704771         1.301477
 C        -4.462414        -0.729719         1.021694
 C        -4.866193        -1.635523         2.275454
 O        -4.466798        -1.145893        -0.143041
 H         1.275452        -0.485138        -1.189855
 H         1.591542        -0.775118         0.570943
 H         0.852746        -1.987021        -0.318658
 H        -3.156641         1.023223        -0.617966
 H        -1.499877         2.620457         0.078730
 H        -3.454185         0.697827         2.283336
 H        -4.629811         1.601316         1.270249
 H        -5.208019        -0.879886         3.041717
 H        -5.595772        -2.463416         2.227095
 H        -3.941322        -2.155006         2.718769
