19
Iteration:  2462charge 0 multiplicity 1
 C         0.486962        -1.386310        -0.009305
 C        -0.866710        -0.709773         0.076987
 C        -1.602726         0.240443         0.212106
 C        -2.809075         1.170823         0.133044
 O        -2.474145         2.600953         0.242932
 C        -3.733632         0.885620         1.304332
 C        -4.316080        -0.602665         1.170948
 C        -3.732242        -1.709530         2.060004
 O        -5.183295        -0.864418         0.354913
 H         0.974089        -1.070972         0.942188
 H         0.411208        -2.476378         0.017828
 H         1.164725        -1.028479        -0.792987
 H        -3.293782         0.912549        -0.830364
 H        -1.524578         2.681540         0.522282
 H        -3.204678         0.893764         2.252812
 H        -4.619776         1.599876         1.221569
 H        -3.931977        -1.502264         3.112402
 H        -4.171861        -2.698753         1.933985
 H        -2.699375        -1.564571         2.184809
