19
Iteration:  2893charge 0 multiplicity 1
 C         0.650249        -1.052861        -0.377608
 C        -0.619291        -0.334997        -0.350362
 C        -1.756474         0.025887        -0.147652
 C        -2.848439         0.935831         0.111519
 O        -2.220095         2.192207         0.286713
 C        -3.519317         0.589235         1.535154
 C        -4.416681        -0.549112         1.387325
 C        -4.697882        -1.257875         2.694905
 O        -4.807332        -0.883645         0.238610
 H         0.585204        -1.399527         0.610802
 H         0.704374        -1.818184        -1.115016
 H         1.553712        -0.505464        -0.447391
 H        -3.546620         0.989582        -0.689296
 H        -1.346532         2.071047         0.629531
 H        -2.739875         0.420038         2.302003
 H        -4.144827         1.320828         2.026860
 H        -5.058646        -0.531787         3.523229
 H        -5.507717        -1.991508         2.728388
 H        -3.836752        -1.586086         3.276647
