19
Iteration:  2762charge 0 multiplicity 1
 C         0.309343        -1.544275        -0.349362
 C        -0.573526        -0.407942        -0.195252
 C        -1.426237         0.354795         0.109558
 C        -2.656396         1.154786         0.245365
 O        -2.446306         2.550871         0.097131
 C        -3.635852         0.763142         1.488323
 C        -4.359128        -0.559326         1.421273
 C        -4.384068        -1.619796         2.461564
 O        -4.872114        -0.946709         0.276328
 H         0.524305        -1.780464         0.704844
 H        -0.296452        -2.418266        -0.645941
 H         1.282995        -1.368081        -0.840263
 H        -3.395160         0.903908        -0.611438
 H        -1.980385         2.896423         0.816270
 H        -3.241243         0.879798         2.572367
 H        -4.415993         1.496176         1.232108
 H        -4.365949        -1.235750         3.536723
 H        -5.143334        -2.386793         2.232876
 H        -3.430626        -2.151517         2.348096
