19
Iteration:  2366
 C         0.581590        -1.212162         0.312138
 C        -0.653399        -0.522643         0.020680
 C        -1.612934         0.280455        -0.135531
 C        -2.812472         1.137472         0.098917
 O        -2.498525         2.624678         0.050521
 C        -3.519757         0.582241         1.464280
 C        -4.343563        -0.689371         1.194928
 C        -3.955406        -1.957181         1.966927
 O        -5.361904        -0.576673         0.501035
 H         1.069772        -0.700560         1.193145
 H         0.328002        -2.303231         0.564661
 H         1.404790        -1.248640        -0.467530
 H        -3.483892         0.990352        -0.824107
 H        -1.620056         2.691497         0.609541
 H        -2.754386         0.207285         2.147896
 H        -4.213461         1.389451         1.856848
 H        -2.922224        -2.375236         1.852632
 H        -4.081851        -1.797121         3.088549
 H        -4.469717        -2.836629         1.584814
