19
Iteration:  4127
 C         0.832923        -1.253766         0.105618
 C        -0.362691        -0.395423         0.302307
 C        -1.306159         0.371338         0.273298
 C        -2.656207         0.904789         0.053332
 O        -2.654537         2.278313        -0.395766
 C        -3.470207         0.608553         1.327371
 C        -4.490949        -0.511134         1.313803
 C        -4.139918        -1.944494         1.622254
 O        -5.741198        -0.276429         1.188228
 H         1.414153        -0.884745        -0.796166
 H         1.537720        -1.200075         0.942795
 H         0.529639        -2.298144         0.067956
 H        -3.114438         0.206897        -0.722082
 H        -2.594861         2.271042        -1.406617
 H        -2.645492         0.358721         1.987203
 H        -3.930799         1.534731         1.596298
 H        -3.278301        -2.400627         1.004013
 H        -3.783562        -2.070122         2.704505
 H        -4.992115        -2.687531         1.503156
