19
Iteration:  1249charge 0 multiplicity 1
 C         1.389348        -0.405142        -0.230131
 C        -0.016556         0.008454         0.160969
 C        -1.188189         0.259046         0.297633
 C        -2.589491         0.563703         0.201988
 O        -2.692015         1.981911         0.254977
 C        -3.469617         0.105081         1.479922
 C        -4.747833        -0.646663         1.166499
 C        -5.484081        -1.273631         2.358595
 O        -5.090572        -0.867843         0.035030
 H         1.635615         0.109962        -1.218049
 H         2.032507        -0.191658         0.628663
 H         1.381034        -1.479960        -0.366836
 H        -3.178041         0.060376        -0.524105
 H        -2.406990         2.180909        -0.666177
 H        -2.936252        -0.371419         2.325651
 H        -3.914147         1.007045         1.891313
 H        -6.509297        -1.123594         1.907771
 H        -5.197320        -2.292367         2.336695
 H        -5.382428        -0.878581         3.328610
