19
Iteration:   238
 C         1.446265        -0.301736         0.054702
 C         0.063134         0.046902        -0.027032
 C        -1.157029         0.104106         0.069632
 C        -2.672069         0.168417         0.100654
 O        -2.932815         1.621277        -0.015899
 C        -3.188199        -0.262310         1.360573
 C        -4.720259        -0.416288         1.242835
 C        -5.254665        -1.739888         1.809106
 O        -5.481644         0.502338         1.031824
 H         1.831261         0.024752         1.094139
 H         1.618768        -1.427796        -0.025151
 H         2.091725         0.031032        -0.786843
 H        -2.966280        -0.449716        -0.738368
 H        -2.786863         1.760837        -1.045542
 H        -2.666384        -1.208123         1.824586
 H        -2.974563         0.515754         2.083282
 H        -4.542724        -2.160187         2.637033
 H        -6.318160        -1.749255         2.081626
 H        -5.162997        -2.286663         0.826832
