19
Iteration:  1598charge 0 multiplicity 1
 C         0.675658        -1.227145        -0.016489
 C        -0.437829        -0.285783         0.042219
 C        -1.468729         0.394599         0.127780
 C        -2.700571         1.226344         0.192168
 O        -2.623391         2.751590         0.770088
 C        -3.697772         0.582745         1.195432
 C        -4.413235        -0.867881         1.002153
 C        -4.736773        -1.632828         2.272968
 O        -4.683234        -1.264433        -0.088203
 H         1.266227        -0.910606        -0.967970
 H         1.313484        -1.181412         0.872736
 H         0.394882        -2.262375        -0.071290
 H        -3.240150         1.221676        -0.693385
 H        -1.742178         2.779672         0.469709
 H        -3.218223         0.580154         2.188704
 H        -4.492140         1.368582         1.324563
 H        -5.806651        -1.725378         2.465981
 H        -4.339560        -2.657372         2.206270
 H        -4.148601        -1.100186         3.006754
