19
Iteration:  4107
 C         0.695626        -1.255323         0.055036
 C        -0.287822        -0.329206         0.493327
 C        -1.242983         0.378791         0.217874
 C        -2.589833         0.799881         0.003897
 O        -2.655647         2.191262        -0.322245
 C        -3.580750         0.678939         1.309509
 C        -4.443439        -0.540688         1.293223
 C        -4.075010        -1.953128         1.588721
 O        -5.692806        -0.215716         1.178582
 H         1.027241        -0.853648        -0.962733
 H         1.632397        -1.423339         0.569179
 H         0.303930        -2.224203        -0.091723
 H        -3.070465         0.168926        -0.624609
 H        -3.137645         2.256323        -1.109891
 H        -3.076187         0.804368         2.278849
 H        -4.211775         1.504442         1.090024
 H        -3.262056        -2.348571         0.939509
 H        -3.697163        -1.925860         2.653358
 H        -4.939023        -2.703094         1.558912
