19
Iteration:  1361
 C         0.936085        -0.891808        -0.015316
 C        -0.246396        -0.001915         0.002482
 C        -1.334391         0.525327         0.122270
 C        -2.716290         0.924422         0.239802
 O        -2.765637         2.337204         0.466588
 C        -3.268569         0.182328         1.430822
 C        -4.445458        -0.821724         1.074829
 C        -5.392072        -1.275528         2.301289
 O        -4.647696        -1.175127        -0.069342
 H         1.570888        -0.668503        -0.935645
 H         1.679203        -0.876904         0.880361
 H         0.712565        -2.041654        -0.016571
 H        -3.342176         0.650380        -0.704531
 H        -3.634062         2.513362        -0.071371
 H        -2.515719        -0.496367         1.903639
 H        -3.670212         0.821343         2.242481
 H        -5.239311        -2.295238         2.646256
 H        -5.136522        -0.709210         3.228415
 H        -6.463463        -0.999094         2.096382
