19
Iteration:  4383
 C         0.463829        -1.436827        -0.093870
 C        -0.598433        -0.504350         0.514978
 C        -1.476867         0.296290         0.245474
 C        -2.640647         0.985598        -0.084991
 O        -2.443683         2.464158        -0.013840
 C        -3.637961         0.805952         1.136906
 C        -4.450141        -0.592392         1.217360
 C        -3.680349        -1.704591         1.884864
 O        -5.649735        -0.618843         0.920227
 H         1.359257        -0.996703        -0.433223
 H         0.692024        -2.246183         0.627592
 H        -0.017608        -2.034362        -0.921708
 H        -3.312084         0.645697        -1.044666
 H        -1.468860         2.604680        -0.126490
 H        -3.136995         1.021926         2.035714
 H        -4.361650         1.596934         0.998311
 H        -2.818605        -2.033304         1.305229
 H        -3.138054        -1.497324         2.843774
 H        -4.361793        -2.577872         1.900449
