19
Iteration:   211charge 0 multiplicity 1
 C         1.569042        -0.177164         0.077140
 C         0.137056        -0.047159         0.053597
 C        -1.085433         0.046766        -0.085325
 C        -2.594134         0.218838         0.060078
 O        -3.082887         1.544799        -0.233273
 C        -3.191912        -0.381783         1.375738
 C        -4.754463        -0.361050         1.460468
 C        -5.394521        -1.756178         1.772518
 O        -5.460496         0.580424         1.120956
 H         2.001727         0.087245         1.002609
 H         1.816927        -1.211391        -0.106469
 H         2.047270         0.272460        -0.791554
 H        -2.915068        -0.381646        -0.781888
 H        -2.533346         2.128469         0.408167
 H        -2.827185        -1.332355         1.624670
 H        -2.770507         0.269095         2.198090
 H        -5.168942        -2.181985         2.698209
 H        -6.454112        -1.608853         1.575727
 H        -5.033867        -2.337486         0.923466
