19
Iteration:   549charge 0 multiplicity 1
 C         1.203596        -0.550575        -0.547712
 C        -0.177687        -0.187649        -0.126468
 C        -1.246203         0.335590         0.199417
 C        -2.635587         0.696910         0.509889
 O        -2.701140         2.115259         0.803769
 C        -3.286023        -0.140697         1.642073
 C        -4.594701        -0.696264         1.046510
 C        -5.710646        -0.774585         2.087426
 O        -4.796323        -1.108127        -0.075543
 H         2.037095         0.090330        -0.179556
 H         1.392939        -1.594251        -0.183430
 H         1.344197        -0.566693        -1.675048
 H        -3.292963         0.372960        -0.309921
 H        -1.807882         2.363797         0.722669
 H        -2.894854        -0.975296         2.218037
 H        -3.549290         0.605080         2.501970
 H        -6.223938         0.182155         2.299092
 H        -6.521222        -1.406912         1.668664
 H        -5.423906        -1.209581         3.064721
