19
Iteration:  1883
 C         0.521820        -1.122928         0.064814
 C        -0.754439        -0.413528         0.174912
 C        -1.812183         0.159846         0.158100
 C        -2.820216         1.153897         0.249804
 O        -2.196377         2.452921         0.655263
 C        -3.963949         0.812122         1.191106
 C        -4.439186        -0.557476         0.961882
 C        -3.932131        -1.633028         2.080121
 O        -4.918329        -1.138982        -0.008768
 H         1.355141        -0.483792        -0.355065
 H         0.866679        -1.680730         0.937177
 H         0.315024        -2.010930        -0.507339
 H        -3.278599         1.223374        -0.799067
 H        -1.368466         2.184304         0.979169
 H        -3.679056         0.927622         2.251197
 H        -4.822176         1.531388         1.131418
 H        -4.162709        -1.271573         3.100222
 H        -4.403120        -2.629211         1.998906
 H        -2.864959        -1.416857         1.858546
