19
Iteration:  4200
 C         0.896313        -0.871591         0.347273
 C        -0.481999        -0.404099         0.022841
 C        -1.675267        -0.160676        -0.133108
 C        -2.857996         0.765464        -0.020721
 O        -2.429268         2.130730        -0.185814
 C        -3.444147         0.612164         1.366311
 C        -4.493433        -0.436838         1.440214
 C        -4.041036        -1.890957         1.617824
 O        -5.692136        -0.129259         1.093664
 H         1.563280        -0.301226        -0.303300
 H         1.266933        -0.753875         1.389187
 H         1.054502        -1.994825         0.151255
 H        -3.597113         0.534567        -0.800414
 H        -1.534346         2.257231         0.303449
 H        -2.525433         0.427013         2.057157
 H        -3.862432         1.637333         1.613445
 H        -3.121852        -2.030434         1.051681
 H        -3.808021        -2.253085         2.584234
 H        -4.638179        -2.703193         1.260971
