19
Iteration:  1608charge 0 multiplicity 1
 C         0.633191        -1.223823         0.002617
 C        -0.466848        -0.254971        -0.026905
 C        -1.483624         0.454659         0.102664
 C        -2.761714         1.162643         0.255403
 O        -2.596894         2.744509         0.719180
 C        -3.641675         0.594255         1.258081
 C        -4.389717        -0.811160         1.016823
 C        -4.679548        -1.647345         2.229962
 O        -4.698467        -1.309801        -0.082922
 H         1.537650        -1.374954        -0.695406
 H         1.100991        -1.128652         0.996246
 H         0.172004        -2.222155         0.024895
 H        -3.063193         1.338807        -0.744258
 H        -1.681498         3.054379         0.767378
 H        -3.107400         0.609755         2.226890
 H        -4.504071         1.318901         1.266387
 H        -5.759783        -1.703807         2.116652
 H        -4.249283        -2.626181         2.068031
 H        -4.509804        -1.324214         3.232446
