19
Iteration:  2613
 C         0.136552        -1.542478        -0.033181
 C        -0.742830        -0.388070        -0.115847
 C        -1.707981         0.311086        -0.038315
 C        -2.797698         1.279784         0.092432
 O        -2.260153         2.609498         0.376127
 C        -3.781271         0.766975         1.284455
 C        -4.239734        -0.694632         1.215922
 C        -3.961192        -1.576982         2.388465
 O        -4.846233        -1.042478         0.274191
 H         0.656963        -1.633573         0.924646
 H        -0.416771        -2.438491        -0.281223
 H         0.867183        -1.463335        -0.820161
 H        -3.388760         1.334512        -0.791184
 H        -1.577315         2.494801         1.063197
 H        -3.249581         1.031543         2.173755
 H        -4.648550         1.369639         1.024372
 H        -3.293845        -2.425416         2.122835
 H        -3.522954        -1.012971         3.295693
 H        -4.865329        -2.002119         2.856950
