19
Iteration:   248
 C         1.425620        -0.335140         0.049033
 C        -0.000118         0.010581        -0.045137
 C        -1.188951         0.077492         0.116135
 C        -2.579006         0.284095         0.132265
 O        -2.862415         1.677026        -0.055349
 C        -3.259881        -0.281532         1.383040
 C        -4.737230        -0.456422         1.287967
 C        -5.159952        -1.752065         1.804681
 O        -5.471931         0.482687         0.961791
 H         1.957935        -0.010846         1.009641
 H         1.359825        -1.451230         0.056917
 H         2.032917         0.118918        -0.745496
 H        -3.090706        -0.176514        -0.673719
 H        -3.433734         1.717645        -0.862883
 H        -2.627156        -1.164438         1.824767
 H        -3.197579         0.592180         1.974987
 H        -4.552437        -2.350187         2.557671
 H        -6.190822        -1.695296         2.163883
 H        -5.207158        -2.480647         0.983377
