19
Iteration:  1124
 C         1.520313        -0.068314         0.267449
 C         0.038718         0.088349        -0.001552
 C        -1.168337         0.296541         0.016512
 C        -2.631893         0.264513         0.044538
 O        -3.011045         1.586628         0.171388
 C        -3.225926        -0.553627         1.273545
 C        -4.700273        -0.685184         1.123544
 C        -5.362732        -0.872763         2.537036
 O        -5.384676        -0.401272         0.106755
 H         1.948016         0.596082        -0.435416
 H         1.843911         0.346205         1.231712
 H         1.839224        -1.112473         0.035782
 H        -2.997673        -0.205795        -0.905027
 H        -2.263059         2.136748        -0.158911
 H        -2.676735        -1.467250         1.362959
 H        -2.883310         0.020412         2.174924
 H        -4.984466        -0.112277         3.197528
 H        -6.473958        -0.750957         2.474297
 H        -4.961862        -1.877459         2.932199
