19
Iteration:   593
 C         1.219476        -0.533651        -0.628206
 C        -0.089059        -0.006721        -0.186064
 C        -1.218370         0.136140         0.265879
 C        -2.592708         0.662274         0.471592
 O        -2.576988         2.109453         0.854957
 C        -3.274476        -0.168260         1.598583
 C        -4.643428        -0.635973         1.113925
 C        -5.944938        -0.656541         1.974763
 O        -4.730112        -1.221044         0.074772
 H         1.893184         0.318583        -0.334207
 H         1.509167        -1.515249        -0.195690
 H         1.243705        -0.500764        -1.757639
 H        -3.052164         0.556599        -0.548830
 H        -3.322269         2.216833         1.492023
 H        -2.598514        -0.970576         1.863970
 H        -3.480641         0.422222         2.612119
 H        -6.688611         0.095275         1.713637
 H        -6.505483        -1.456004         1.440654
 H        -5.812948        -0.785648         3.033757
