19
Iteration:  3603charge 0 multiplicity 1
 C         0.396461        -1.515213        -0.312874
 C        -0.579544        -0.463415         0.065434
 C        -1.620478         0.143029         0.168306
 C        -2.796209         1.035032         0.215560
 O        -2.496211         2.479329         0.047076
 C        -3.719874         0.862275         1.415301
 C        -4.291264        -0.587768         1.251795
 C        -4.077825        -1.396398         2.539116
 O        -4.930515        -0.858080         0.280815
 H        -0.202030        -2.345388        -0.717439
 H         1.078612        -1.128470        -1.081100
 H         0.968591        -1.950474         0.457396
 H        -3.450744         0.716652        -0.686547
 H        -1.583992         2.403095        -0.117245
 H        -3.279266         1.051816         2.369213
 H        -4.616552         1.419560         1.265032
 H        -3.168546        -2.017046         2.465583
 H        -3.971186        -0.786655         3.460606
 H        -4.960020        -2.038134         2.732919
