19
Iteration:  1675
 C         0.461596        -1.239933         0.131952
 C        -0.753803        -0.355907         0.161088
 C        -1.727276         0.323285        -0.066185
 C        -2.890796         1.192887         0.220842
 O        -2.596652         2.647653         0.511984
 C        -3.506126         0.562586         1.523467
 C        -4.154278        -0.698512         1.024616
 C        -4.567643        -1.723404         2.041573
 O        -4.433378        -1.007183        -0.105113
 H         1.237554        -1.058785        -0.737672
 H         0.929929        -1.243468         1.137046
 H         0.083559        -2.252054         0.015407
 H        -3.765637         1.091981        -0.373403
 H        -1.843014         2.664801         1.177296
 H        -2.685014         0.321096         2.248548
 H        -4.166275         1.352777         1.985670
 H        -5.060320        -2.521127         1.559106
 H        -3.701029        -1.900927         2.692434
 H        -5.154370        -1.237337         2.828124
