19
Iteration:   771charge 0 multiplicity 1
 C         1.412533        -0.304139        -0.350015
 C         0.028880        -0.055813        -0.037854
 C        -1.117643         0.362351         0.152389
 C        -2.623611         0.542681         0.364512
 O        -3.006194         1.873364         0.898587
 C        -3.177286        -0.657087         1.285394
 C        -4.634661        -0.763327         1.094633
 C        -5.650753        -0.052955         2.043995
 O        -5.115694        -1.279824         0.078986
 H         2.011636         0.660003        -0.382716
 H         1.908850        -0.858285         0.485730
 H         1.512176        -0.913176        -1.256965
 H        -3.103282         0.571867        -0.641733
 H        -2.139117         2.411823         0.979288
 H        -2.732318        -1.575266         0.766294
 H        -2.844911        -0.562475         2.332334
 H        -5.406678         0.889623         2.554805
 H        -6.632444        -0.055730         1.599098
 H        -5.761072        -0.776851         2.808433
