19
Iteration:   749charge 0 multiplicity 1
 C         1.337902        -0.321309        -0.393731
 C        -0.039280         0.066690        -0.128091
 C        -1.173702         0.308498         0.201300
 C        -2.600177         0.538774         0.407098
 O        -2.804945         1.873407         0.847936
 C        -3.201655        -0.501430         1.352977
 C        -4.724413        -0.754633         1.071277
 C        -5.754240        -0.142909         2.046246
 O        -4.941171        -1.353762         0.046027
 H         2.175095         0.440350        -0.375568
 H         1.666877        -1.021354         0.426872
 H         1.394282        -0.981007        -1.263302
 H        -3.060888         0.622861        -0.605482
 H        -2.999201         1.906481         1.747214
 H        -2.801028        -1.525116         1.058843
 H        -2.910276        -0.257644         2.396037
 H        -5.228251         0.694814         2.516701
 H        -6.684519         0.232657         1.679206
 H        -6.020697        -0.600935         2.943284
