19
Iteration:   604
 C         1.167307        -0.453254        -0.633930
 C        -0.094640        -0.027103        -0.151916
 C        -1.203498         0.194852         0.232935
 C        -2.543142         0.648705         0.519773
 O        -2.596866         2.056921         0.834155
 C        -3.340453        -0.153359         1.600869
 C        -4.662393        -0.665890         1.139734
 C        -5.891407        -0.595710         1.877785
 O        -4.749745        -1.261066         0.073266
 H         2.046969         0.184716        -0.369470
 H         1.461574        -1.432898        -0.189393
 H         1.189984        -0.621918        -1.751851
 H        -3.216873         0.406900        -0.327593
 H        -2.596484         2.059121         1.754428
 H        -2.882837        -1.111521         1.839358
 H        -3.382456         0.448065         2.620825
 H        -6.463506         0.321059         1.746200
 H        -6.355772        -1.566540         1.707172
 H        -5.693373        -0.635586         2.944792
