19
Iteration:  4791
 C         0.565503        -1.055111        -0.442906
 C        -0.738462        -0.391414        -0.628639
 C        -1.766026         0.227242        -0.575337
 C        -2.797556         0.930851         0.239848
 O        -2.345677         2.287296         0.348828
 C        -3.157611         0.446391         1.635089
 C        -4.241728        -0.678783         1.564427
 C        -5.343877        -0.730258         2.621050
 O        -4.398753        -1.338385         0.570834
 H         1.306564        -0.624113         0.300746
 H         0.385325        -2.136335        -0.235030
 H         1.149233        -1.036318        -1.370125
 H        -3.787427         1.038016        -0.302053
 H        -1.433988         2.218369         0.768396
 H        -2.230840        -0.190564         1.892107
 H        -3.105662         1.185183         2.414913
 H        -5.239005        -0.961078         3.708395
 H        -5.886632         0.165405         2.499151
 H        -5.747124        -1.661540         2.149886
