19
Iteration:  3031
 C         0.624365        -1.148995        -0.777479
 C        -0.557139        -0.594162        -0.198722
 C        -1.278110         0.303685         0.168603
 C        -2.612820         0.946316         0.307064
 O        -2.665791         2.439954         0.036174
 C        -3.253755         0.494736         1.641661
 C        -4.313179        -0.630842         1.484767
 C        -5.237114        -1.102512         2.625052
 O        -4.698206        -1.077404         0.353873
 H         0.866728        -1.925611        -0.023916
 H         0.480254        -1.624401        -1.759913
 H         1.508323        -0.497732        -1.020315
 H        -3.299961         0.474199        -0.502755
 H        -1.804357         2.814429         0.469279
 H        -2.577774         0.121926         2.415846
 H        -3.765884         1.351464         2.139756
 H        -5.087112        -0.504207         3.502649
 H        -6.261240        -0.918955         2.338652
 H        -4.966467        -2.131937         2.695137
