19
Iteration:   323charge 0 multiplicity 1
 C         1.340193        -0.578171        -0.029925
 C        -0.037977        -0.091517         0.046437
 C        -1.218197         0.169184         0.144474
 C        -2.630339         0.566402         0.133371
 O        -2.800471         1.945884         0.167737
 C        -3.319044        -0.131417         1.354567
 C        -4.711027        -0.518748         1.250658
 C        -5.072215        -1.809356         2.034640
 O        -5.466594         0.147804         0.547615
 H         1.907852        -0.157942         0.832195
 H         1.413916        -1.675662         0.012163
 H         1.745273        -0.307912        -1.002078
 H        -3.220001         0.175515        -0.777002
 H        -2.952342         2.089945        -0.726182
 H        -2.496672        -0.816567         1.868810
 H        -3.431309         0.754330         1.989586
 H        -4.540286        -1.857668         3.023990
 H        -6.110273        -2.115040         2.044503
 H        -4.556522        -2.648793         1.598867
