19
Iteration:  2310charge 0 multiplicity 1
 C         0.766046        -1.187395         0.149126
 C        -0.488615        -0.351010         0.178599
 C        -1.642379         0.081836         0.126306
 C        -2.866515         1.028597         0.213965
 O        -2.534589         2.353713         0.023726
 C        -3.639905         0.677529         1.487875
 C        -4.410328        -0.603307         1.237936
 C        -3.929115        -1.822507         1.795532
 O        -5.387831        -0.486481         0.444233
 H         1.652298        -0.933798         0.795640
 H         0.506981        -2.269868         0.352350
 H         0.982053        -1.147116        -0.946857
 H        -3.512650         0.640180        -0.638775
 H        -1.767888         2.453223         0.545856
 H        -3.229609         0.821161         2.491414
 H        -4.411394         1.477874         1.474205
 H        -3.867742        -2.441540         0.868046
 H        -2.900391        -1.865753         2.245832
 H        -4.463392        -2.289706         2.564087
