19
Iteration:  3129charge 0 multiplicity 1
 C         0.757001        -1.019015        -0.602507
 C        -0.598049        -0.484474        -0.534148
 C        -1.543610         0.248535        -0.229810
 C        -2.660864         1.070633         0.126678
 O        -2.117710         2.393791         0.425819
 C        -3.569362         0.559871         1.394826
 C        -4.626363        -0.565214         1.415804
 C        -5.246242        -1.056994         2.839204
 O        -4.664592        -1.454353         0.507590
 H         0.670033        -1.637765         0.286411
 H         1.055305        -1.610920        -1.459449
 H         1.517092        -0.230442        -0.448941
 H        -3.380879         1.067678        -0.814407
 H        -1.088151         2.332717         0.569384
 H        -2.728237         0.292222         2.164589
 H        -4.056223         1.385390         1.911612
 H        -4.558811        -0.699209         3.643539
 H        -6.265448        -0.691266         2.998912
 H        -5.060940        -2.113712         2.798018
