19
Iteration:  1520
 C         0.833256        -0.868679        -0.162882
 C        -0.497896        -0.338074         0.040105
 C        -1.581628         0.180599         0.356648
 C        -2.730812         1.034560         0.308052
 O        -2.369182         2.469889         0.487912
 C        -3.980634         0.693551         1.411877
 C        -4.549526        -0.749571         1.053922
 C        -4.911603        -1.639092         2.252895
 O        -4.422851        -1.128781        -0.086628
 H         1.169666        -0.357133        -1.132841
 H         1.546058        -0.515229         0.600494
 H         0.759367        -1.946506        -0.413409
 H        -3.222617         0.818387        -0.590390
 H        -1.374647         2.444421         0.277920
 H        -3.745208         0.777309         2.493097
 H        -4.911100         1.321451         1.231599
 H        -5.012150        -1.111835         3.267110
 H        -5.770369        -2.213442         1.922791
 H        -3.998793        -2.254934         2.304443
