19
Iteration:  3256
 C         0.562323        -1.294145        -0.809804
 C        -0.679930        -0.560536        -0.373886
 C        -1.422127         0.281786         0.096487
 C        -2.662260         1.012263         0.346854
 O        -2.536570         2.471569         0.210723
 C        -3.411383         0.579840         1.701985
 C        -4.326184        -0.683720         1.493034
 C        -5.321079        -1.045939         2.568644
 O        -4.259284        -1.164789         0.418908
 H         0.711428        -2.127686        -0.064328
 H         0.618315        -1.685305        -1.849313
 H         1.309090        -0.538059        -0.538209
 H        -3.426101         0.689921        -0.459880
 H        -2.058597         2.524321        -0.611871
 H        -2.761004         0.702784         2.552261
 H        -4.024221         1.514082         1.891053
 H        -4.872884        -1.647953         3.357163
 H        -5.776685        -0.111673         2.897946
 H        -6.103640        -1.530094         1.989079
