19
Iteration:  4416
 C         0.463919        -1.648791         0.110898
 C        -0.597390        -0.557293         0.090667
 C        -1.517076         0.232440         0.193455
 C        -2.756192         1.071573         0.152060
 O        -2.463998         2.507014        -0.009727
 C        -3.806742         0.910089         1.340176
 C        -4.403475        -0.482769         1.258725
 C        -3.472079        -1.574045         1.788327
 O        -5.558775        -0.755041         0.782044
 H         1.471398        -1.322220         0.028558
 H         0.305079        -2.107506         1.103274
 H         0.261718        -2.407841        -0.705004
 H        -3.369017         0.647508        -0.716522
 H        -1.724164         2.579972        -0.570369
 H        -3.344461         1.118276         2.264124
 H        -4.507747         1.648704         1.017784
 H        -2.761575        -1.589279         0.988192
 H        -3.152493        -1.286148         2.796329
 H        -4.048639        -2.526089         1.753239
