19
Iteration:  1342
 C         1.079831        -0.820178        -0.114439
 C        -0.160896        -0.156745         0.117140
 C        -1.296226         0.394043         0.103698
 C        -2.759257         0.931069         0.309328
 O        -2.869465         2.401793         0.332086
 C        -3.343955         0.086785         1.528170
 C        -4.461910        -0.885061         1.123579
 C        -5.342637        -1.234632         2.279405
 O        -4.678913        -1.048172        -0.067941
 H         1.571591        -0.523967        -1.018704
 H         1.622896        -0.707909         0.833019
 H         0.870377        -1.926190        -0.072941
 H        -3.203707         0.604791        -0.589930
 H        -3.847529         2.611098         0.343456
 H        -2.496918        -0.459938         1.964101
 H        -3.682178         0.856453         2.277618
 H        -5.566395        -2.285442         2.256799
 H        -5.104163        -0.751638         3.248233
 H        -6.228382        -0.677077         1.868087
