19
Iteration:   511charge 0 multiplicity 1
 C         1.230146        -0.631545        -0.461428
 C        -0.140855        -0.093450        -0.044448
 C        -1.296318         0.256669         0.185708
 C        -2.660209         0.701521         0.366809
 O        -2.576161         2.178591         0.735446
 C        -3.367085        -0.059155         1.482454
 C        -4.688907        -0.705492         1.075297
 C        -5.629840        -0.985130         2.302274
 O        -4.802274        -0.962529        -0.094776
 H         2.114555        -0.216013         0.013867
 H         1.181426        -1.661956        -0.118835
 H         1.268382        -0.721815        -1.522492
 H        -3.186035         0.746886        -0.603688
 H        -3.482042         2.475283         0.980629
 H        -2.619665        -0.943373         1.564650
 H        -3.486438         0.517293         2.353415
 H        -5.733887        -0.046129         2.826288
 H        -6.458704        -1.556243         1.880461
 H        -5.165849        -1.673747         3.004380
