19
Iteration:  1130
 C         1.493156        -0.062231         0.256969
 C         0.037307         0.065143         0.008478
 C        -1.168938         0.281932        -0.057592
 C        -2.573548         0.255354         0.112072
 O        -2.999309         1.611341         0.158016
 C        -3.187164        -0.453690         1.296939
 C        -4.740517        -0.703751         1.106026
 C        -5.368552        -0.892263         2.501073
 O        -5.399575        -0.425083         0.134286
 H         1.945795         0.612784        -0.549658
 H         1.855666         0.271613         1.242896
 H         1.914969        -1.050989         0.089173
 H        -3.077990        -0.142014        -0.809496
 H        -2.085894         2.041198        -0.017078
 H        -2.731562        -1.503716         1.325612
 H        -2.935759         0.018019         2.250026
 H        -5.153890        -0.094988         3.308624
 H        -6.434536        -1.007940         2.344868
 H        -5.117164        -1.835014         2.942512
