19
Iteration:  1197
 C         1.402729        -0.116990        -0.004755
 C        -0.015852        -0.112342         0.047676
 C        -1.207543         0.088856         0.171562
 C        -2.630959         0.460541         0.285973
 O        -2.648929         1.944389        -0.001764
 C        -3.271239        -0.148584         1.504020
 C        -4.745041        -0.713060         1.154495
 C        -5.443877        -1.118061         2.361473
 O        -5.345153        -0.688029         0.068733
 H         1.583282         0.569493        -0.861377
 H         1.876827         0.370180         0.876606
 H         1.753112        -1.150623        -0.216352
 H        -3.308674        -0.007014        -0.516344
 H        -2.421392         2.290081         0.827533
 H        -2.491211        -0.859808         1.962907
 H        -3.595541         0.588398         2.277592
 H        -6.349216        -0.492878         2.646612
 H        -5.835526        -2.104228         2.061419
 H        -4.649153        -1.218406         3.112811
