19
Iteration:  3889charge 0 multiplicity 1
 C         0.538561        -1.445291         0.219735
 C        -0.629905        -0.535854         0.233946
 C        -1.605696         0.127269        -0.067100
 C        -2.768467         1.027970        -0.069819
 O        -2.440542         2.401937        -0.083000
 C        -3.606492         0.800990         1.334980
 C        -4.377916        -0.501446         1.364762
 C        -3.600011        -1.637104         1.752644
 O        -5.574799        -0.615801         0.940507
 H         0.868146        -1.865970        -0.804132
 H         1.380246        -0.930775         0.704855
 H         0.268584        -2.258236         0.869731
 H        -3.350214         0.818923        -0.942201
 H        -3.315566         2.892037        -0.289314
 H        -2.881612         0.773949         2.149930
 H        -4.065111         1.786161         1.299206
 H        -3.346851        -2.164294         0.874146
 H        -2.751167        -1.266516         2.340534
 H        -4.260343        -2.205772         2.372646
