19
Iteration:  3997charge 0 multiplicity 1
 C         0.650656        -1.084448         0.340145
 C        -0.666806        -0.495026         0.217472
 C        -1.740858        -0.070014        -0.139529
 C        -2.794768         0.886900        -0.128849
 O        -2.235158         2.242419        -0.003532
 C        -3.638906         0.784675         1.181374
 C        -4.422191        -0.511315         1.305677
 C        -3.700439        -1.813841         1.588350
 O        -5.589339        -0.404751         1.213820
 H         0.997437        -1.026172        -0.721102
 H         1.223218        -0.437335         0.974002
 H         0.533407        -2.092117         0.609359
 H        -3.549804         0.839609        -1.061303
 H        -2.834001         2.920429        -0.452007
 H        -2.813495         0.887867         1.891993
 H        -4.273020         1.662185         1.312057
 H        -3.024106        -2.263889         0.890520
 H        -3.098429        -1.603025         2.494878
 H        -4.505926        -2.462511         1.857348
