19
Iteration:   275charge 0 multiplicity 1
 C         1.497170        -0.401708         0.007360
 C        -0.013141        -0.188752         0.072588
 C        -1.197865         0.135841         0.085730
 C        -2.632974         0.414966         0.141856
 O        -2.858749         1.849516        -0.169584
 C        -3.172799        -0.131596         1.449728
 C        -4.751700        -0.460767         1.384794
 C        -5.212290        -1.856213         1.879443
 O        -5.510444         0.310393         0.792904
 H         2.009732        -0.023413         0.862808
 H         1.668805        -1.479200        -0.014518
 H         1.933348         0.043440        -0.920162
 H        -3.304488        -0.064779        -0.621571
 H        -3.366214         2.260132         0.620370
 H        -2.646749        -1.008424         1.562989
 H        -2.791926         0.586787         2.279120
 H        -4.608904        -2.476387         2.501698
 H        -6.308289        -1.881448         2.109532
 H        -5.170792        -2.440336         0.905443
