19
Iteration:   737
 C         1.281062        -0.356202        -0.407387
 C        -0.035458         0.131076        -0.146502
 C        -1.184804         0.245277         0.191923
 C        -2.595418         0.552913         0.414657
 O        -2.690635         1.876484         0.897937
 C        -3.247781        -0.416237         1.441295
 C        -4.661857        -0.724693         1.064751
 C        -5.727472        -0.145390         1.991854
 O        -4.982636        -1.391263         0.046306
 H         2.039683         0.484734        -0.470314
 H         1.445796        -1.055264         0.441387
 H         1.310476        -0.861461        -1.374567
 H        -3.156133         0.260254        -0.518920
 H        -3.598786         1.856983         1.408652
 H        -2.597839        -1.322099         1.336030
 H        -3.072153        -0.063773         2.507350
 H        -5.384030         0.729293         2.537462
 H        -6.647780        -0.008115         1.458275
 H        -5.771537        -1.071964         2.477595
