19
Iteration:  2741
 C         0.259678        -1.572747        -0.179024
 C        -0.696852        -0.459338        -0.292235
 C        -1.481635         0.422553         0.109072
 C        -2.739720         1.202141         0.335768
 O        -2.426573         2.610425         0.042019
 C        -3.682589         0.872879         1.485542
 C        -4.139035        -0.682988         1.337263
 C        -4.355917        -1.726236         2.441606
 O        -4.827641        -0.893872         0.263103
 H         0.648838        -1.939190         0.808422
 H        -0.296768        -2.454701        -0.614174
 H         1.136741        -1.372070        -0.852177
 H        -3.381963         0.843022        -0.581744
 H        -1.594703         2.749075         0.584645
 H        -2.945416         0.885851         2.415851
 H        -4.503126         1.524062         1.715856
 H        -4.125327        -1.359069         3.461715
 H        -5.298385        -2.187071         2.496153
 H        -3.807709        -2.624207         2.322284
