19
Iteration:  1767charge 0 multiplicity 1
 C         0.421432        -1.352271        -0.140558
 C        -0.526945        -0.198495         0.266507
 C        -1.566453         0.403267         0.257409
 C        -2.834298         1.188687         0.249052
 O        -2.464929         2.529006         0.560504
 C        -3.834813         0.664923         1.226662
 C        -4.296446        -0.738834         1.024767
 C        -4.362733        -1.709680         2.225634
 O        -4.642436        -1.028570        -0.112303
 H         1.071114        -0.920975        -0.856914
 H         0.960086        -1.656672         0.780758
 H        -0.181975        -2.210666        -0.581987
 H        -3.209476         1.242608        -0.762730
 H        -1.906683         2.386608         1.292073
 H        -3.609281         0.672120         2.296183
 H        -4.649280         1.428976         1.153103
 H        -3.427210        -2.382775         2.157984
 H        -4.366397        -1.048053         3.149717
 H        -5.223237        -2.414049         2.388930
