19
Iteration:   657
 C         1.209162        -0.384239        -0.610706
 C        -0.116401        -0.098696        -0.124753
 C        -1.252224         0.143945         0.267625
 C        -2.567341         0.678601         0.538813
 O        -2.564703         2.008654         0.948199
 C        -3.280218        -0.177004         1.575614
 C        -4.627306        -0.685035         1.038722
 C        -5.847376        -0.433468         1.921740
 O        -4.817542        -1.401631         0.023058
 H         1.716492         0.535687        -0.345237
 H         1.839686        -1.177661        -0.218800
 H         1.167969        -0.521783        -1.712890
 H        -3.216847         0.384742        -0.327774
 H        -3.526497         2.183463         0.943184
 H        -2.795851        -1.128622         1.642735
 H        -3.302140         0.427587         2.544901
 H        -5.968160         0.600015         1.711871
 H        -6.623352        -1.042698         1.459099
 H        -5.649466        -0.354231         3.004241
