19
Iteration:  2409
 C         0.393669        -1.318738         0.272355
 C        -0.513955        -0.227015         0.041848
 C        -1.632578         0.296565        -0.214491
 C        -2.859679         1.078595         0.030045
 O        -2.400516         2.464604         0.181332
 C        -3.660920         0.660838         1.416111
 C        -4.336935        -0.673633         1.288185
 C        -3.850847        -1.856225         2.076321
 O        -5.276038        -0.667060         0.417754
 H         1.055642        -1.378202         1.217647
 H        -0.274109        -2.265590         0.237251
 H         1.060421        -1.301973        -0.678249
 H        -3.589732         0.957614        -0.888228
 H        -1.507613         2.425642         0.621766
 H        -2.929774         0.610786         2.254878
 H        -4.450529         1.493164         1.693116
 H        -2.939150        -1.772849         2.700890
 H        -4.821289        -2.227549         2.534946
 H        -3.534155        -2.618455         1.300545
