19
Iteration:  2006charge 0 multiplicity 1
 C         0.376487        -1.523279         0.277536
 C        -0.656496        -0.414865         0.315295
 C        -1.432383         0.524789         0.281361
 C        -2.727546         1.235378         0.178530
 O        -2.681103         2.653241         0.246138
 C        -3.654663         0.663642         1.334163
 C        -4.355129        -0.618872         1.071395
 C        -3.730838        -1.932906         1.734123
 O        -5.211476        -0.828876         0.258258
 H         1.432555        -1.264807         0.358608
 H         0.173195        -2.225521         1.133983
 H         0.112480        -2.197914        -0.601462
 H        -3.110105         0.848368        -0.846409
 H        -2.127655         3.033075        -0.373172
 H        -2.992936         0.513607         2.234567
 H        -4.313787         1.532276         1.684084
 H        -4.432857        -2.592094         1.176677
 H        -2.625035        -2.018259         1.545567
 H        -3.961662        -1.816115         2.824486
