19
Iteration:  4621
 C         0.269220        -1.399835        -0.620224
 C        -0.621961        -0.588148         0.204105
 C        -1.496755         0.288513         0.258453
 C        -2.768003         1.035635         0.124277
 O        -2.395046         2.531881         0.072685
 C        -3.729303         0.855969         1.384675
 C        -4.299201        -0.562071         1.343539
 C        -4.418668        -1.361120         2.613068
 O        -4.657032        -1.109299         0.350573
 H         1.326779        -1.246128        -0.670001
 H         0.078308        -2.450079        -0.423108
 H        -0.098624        -1.249798        -1.640020
 H        -3.429944         0.506531        -0.677221
 H        -1.479211         2.430774         0.276297
 H        -3.245903         1.116084         2.353810
 H        -4.473794         1.731099         1.245545
 H        -3.464297        -1.506962         3.057929
 H        -5.053073        -0.803258         3.326658
 H        -4.812589        -2.330555         2.198789
