19
Iteration:  2260charge 0 multiplicity 1
 C         0.769946        -1.089113        -0.064436
 C        -0.480332        -0.491903         0.263569
 C        -1.503164         0.186789         0.446191
 C        -2.683061         0.964744         0.279432
 O        -2.391406         2.388065         0.039397
 C        -3.780776         0.704267         1.287857
 C        -4.553640        -0.544918         1.092067
 C        -3.955147        -1.769337         1.798861
 O        -5.594668        -0.680809         0.545220
 H         1.538819        -0.636938         0.559612
 H         0.722458        -2.134818         0.260399
 H         1.093327        -1.028492        -1.118780
 H        -3.031491         0.672925        -0.689918
 H        -1.556926         2.726746         0.579754
 H        -3.393877         0.642281         2.316624
 H        -4.484254         1.554744         1.222978
 H        -4.676224        -2.639187         1.839986
 H        -3.131788        -2.172508         1.149484
 H        -3.374974        -1.630676         2.802321
