19
Iteration:  3819charge 0 multiplicity 1
 C         0.256382        -1.562084        -0.143239
 C        -0.563183        -0.425174         0.243309
 C        -1.474192         0.319468         0.571761
 C        -2.742729         0.979170         0.235042
 O        -2.440817         2.281220        -0.253423
 C        -3.720348         0.975476         1.373043
 C        -4.396942        -0.449292         1.291531
 C        -3.526098        -1.577291         1.825945
 O        -5.390845        -0.755604         0.717226
 H         0.019077        -2.054219        -1.070497
 H         1.309058        -1.239728        -0.045687
 H        -0.011987        -2.281693         0.699502
 H        -3.092194         0.332165        -0.641677
 H        -3.264558         2.533385        -0.832466
 H        -3.224225         1.348639         2.301431
 H        -4.641890         1.577219         1.144792
 H        -2.812696        -1.820337         1.017635
 H        -3.015139        -1.329602         2.733959
 H        -4.238582        -2.400313         2.031595
