19
Iteration:  4836
 C         0.655030        -1.146871        -0.854128
 C        -0.601123        -0.439874        -0.386675
 C        -1.613372         0.147330        -0.116232
 C        -2.773969         0.968716         0.329414
 O        -2.541374         2.393348         0.396790
 C        -3.247339         0.426033         1.564023
 C        -4.337320        -0.643123         1.400191
 C        -5.295626        -0.576256         2.547430
 O        -4.403730        -1.521334         0.554465
 H         1.496959        -0.768715        -0.161021
 H         0.588392        -2.239179        -0.759666
 H         0.999201        -0.843917        -1.825493
 H        -3.568510         0.900387        -0.415972
 H        -1.540741         2.563011         0.516763
 H        -2.424863        -0.136106         2.132111
 H        -3.544192         1.118848         2.293537
 H        -4.832619        -0.197477         3.456882
 H        -5.781321         0.347996         2.364999
 H        -5.966631        -1.372728         2.882729
