19
Iteration:  1420
 C         0.879620        -0.932307         0.061841
 C        -0.332589        -0.157675        -0.055951
 C        -1.388254         0.421772         0.026149
 C        -2.728075         1.026183         0.157026
 O        -2.796639         2.552917         0.574588
 C        -3.412320         0.197658         1.391034
 C        -4.369856        -0.879108         1.074224
 C        -5.232365        -1.344561         2.334176
 O        -4.607455        -1.222636        -0.048446
 H         1.405853        -0.678137        -0.869176
 H         1.493578        -0.653923         0.975232
 H         0.582192        -2.048237        -0.058768
 H        -3.255886         1.061234        -0.779916
 H        -1.904362         2.798448         0.486730
 H        -2.713685        -0.147877         2.190782
 H        -4.119912         0.983672         1.823108
 H        -4.662023        -1.991679         3.045974
 H        -5.692919        -0.384563         2.576904
 H        -5.927135        -2.027022         1.830613
