19
Iteration:   274
 C         1.493346        -0.403294         0.006337
 C        -0.007589        -0.179215         0.065612
 C        -1.198359         0.129734         0.092627
 C        -2.635975         0.407600         0.134736
 O        -2.852568         1.847036        -0.170803
 C        -3.177548        -0.126858         1.457057
 C        -4.752867        -0.463151         1.380020
 C        -5.214417        -1.855309         1.875742
 O        -5.507357         0.320216         0.798110
 H         2.015112        -0.002012         0.872554
 H         1.648293        -1.491644         0.008432
 H         1.942263         0.079944        -0.904376
 H        -3.288431        -0.076320        -0.612289
 H        -3.430967         2.224193         0.621030
 H        -2.653421        -1.021540         1.526221
 H        -2.771762         0.578128         2.265056
 H        -4.601702        -2.486185         2.511791
 H        -6.302617        -1.914906         2.140435
 H        -5.172457        -2.462879         0.905182
