19
Iteration:   530
 C         1.090993        -0.598700        -0.484001
 C        -0.143110        -0.076813        -0.098315
 C        -1.268270         0.134136         0.237064
 C        -2.582099         0.741138         0.429275
 O        -2.685625         2.130099         0.729712
 C        -3.327528        -0.075443         1.541085
 C        -4.595069        -0.723080         1.069177
 C        -5.642360        -0.867900         2.132663
 O        -4.806684        -1.028493        -0.072137
 H         1.912326         0.075147        -0.094177
 H         1.364432        -1.600610        -0.147590
 H         1.271148        -0.488577        -1.557322
 H        -3.166832         0.669982        -0.512965
 H        -2.593891         2.192017         1.682722
 H        -2.536243        -0.713183         1.893727
 H        -3.387572         0.618696         2.419099
 H        -5.817890         0.222088         2.502785
 H        -6.553473        -1.471090         1.842391
 H        -5.272997        -1.362330         3.031592
