19
Iteration:  2703charge 0 multiplicity 1
 C         0.225933        -1.549064        -0.133716
 C        -0.861552        -0.570647         0.124348
 C        -1.705679         0.266981        -0.118821
 C        -2.898705         1.172818         0.193788
 O        -2.538883         2.557117         0.260879
 C        -3.466856         0.777659         1.456116
 C        -4.140143        -0.534726         1.262749
 C        -4.151023        -1.571138         2.387118
 O        -4.680566        -0.856127         0.140609
 H         0.760414        -1.812569         0.760266
 H        -0.245526        -2.426180        -0.547001
 H         0.930600        -1.246032        -0.885263
 H        -3.608903         1.165098        -0.576762
 H        -1.518077         2.664615         0.286761
 H        -2.686215         0.440563         2.072630
 H        -4.023534         1.563094         2.062587
 H        -3.427743        -1.176803         3.147234
 H        -5.209016        -1.593282         2.869021
 H        -3.761755        -2.498591         1.829050
