19
Iteration:  4944
 C         0.627330        -0.892319        -1.106094
 C        -0.604159        -0.548794        -0.292934
 C        -1.570420        -0.045452         0.228341
 C        -2.712632         0.837149         0.291762
 O        -2.375317         2.184771         0.299764
 C        -3.520802         0.619096         1.612055
 C        -4.333336        -0.600546         1.519657
 C        -5.398227        -0.629567         2.567645
 O        -4.218468        -1.365976         0.601798
 H         1.531724        -0.889478        -0.518848
 H         0.665726        -1.865432        -1.588406
 H         0.748710        -0.198740        -1.891177
 H        -3.526266         0.715661        -0.490275
 H        -1.935356         2.230422        -0.627817
 H        -2.801464         0.454620         2.488494
 H        -4.111861         1.496251         1.797896
 H        -5.101382        -0.604679         3.661015
 H        -5.951611         0.244088         2.204871
 H        -6.111851        -1.408895         2.229260
