19
Iteration:  4077charge 0 multiplicity 1
 C         0.743343        -1.328261         0.031922
 C        -0.244853        -0.331420         0.336755
 C        -1.316551         0.254792         0.424200
 C        -2.580258         0.820348        -0.017103
 O        -2.590301         2.186325        -0.385678
 C        -3.684436         0.760409         1.393995
 C        -4.597775        -0.443610         1.330559
 C        -3.882748        -1.788064         1.538021
 O        -5.743463        -0.362075         1.128318
 H         1.120224        -1.213339        -0.979000
 H         1.621378        -1.399365         0.714492
 H         0.233973        -2.307018         0.154350
 H        -3.228651         0.063395        -0.608952
 H        -3.527167         2.523918        -0.301647
 H        -3.056086         0.775944         2.303624
 H        -4.267347         1.683520         1.253359
 H        -3.160397        -1.910905         0.800443
 H        -3.339221        -1.927497         2.434042
 H        -4.595111        -2.597038         1.420198
