19
Iteration:  1924charge 0 multiplicity 1
 C         0.448783        -1.220281         0.214583
 C        -0.808537        -0.587343         0.126727
 C        -1.736459         0.216400         0.109329
 C        -2.773110         1.169935         0.211771
 O        -2.366366         2.534809         0.590378
 C        -3.907231         0.770940         1.245293
 C        -4.273916        -0.680613         0.998880
 C        -3.841488        -1.702061         2.029819
 O        -5.009034        -0.902433         0.038173
 H         1.164605        -0.423159        -0.061458
 H         0.680113        -1.524542         1.223953
 H         0.678608        -1.922593        -0.556093
 H        -3.195428         1.248341        -0.812485
 H        -1.436324         2.789939         0.335773
 H        -3.463321         0.898821         2.218292
 H        -4.783091         1.347267         1.050226
 H        -4.644737        -1.928460         2.787604
 H        -3.629590        -2.685581         1.404650
 H        -2.949029        -1.334198         2.626230
