19
Iteration:  4636
 C         0.241698        -1.400817        -0.676108
 C        -0.593218        -0.422644         0.006465
 C        -1.515461         0.273191         0.378419
 C        -2.679891         1.051191         0.270958
 O        -2.366801         2.393467         0.077074
 C        -3.761335         0.856488         1.329662
 C        -4.338799        -0.611590         1.326091
 C        -4.500209        -1.325066         2.702830
 O        -4.618620        -1.118339         0.293533
 H         1.291095        -1.130902        -0.427242
 H         0.034603        -2.454777        -0.317105
 H         0.050590        -1.342302        -1.812571
 H        -3.042881         0.844275        -0.678896
 H        -1.423223         2.506886         0.004940
 H        -3.301043         1.138146         2.292903
 H        -4.625522         1.502380         1.159773
 H        -3.527151        -1.307484         3.271451
 H        -5.162632        -0.757795         3.390447
 H        -5.020648        -2.269101         2.638209
