19
Iteration:  4813
 C         0.596363        -1.072655        -0.620702
 C        -0.710519        -0.495355        -0.474781
 C        -1.720245         0.208561        -0.381817
 C        -2.780837         1.008624         0.156844
 O        -2.446002         2.384225         0.375096
 C        -3.103652         0.268109         1.627589
 C        -4.338912        -0.696577         1.515151
 C        -5.369012        -0.610648         2.602513
 O        -4.331797        -1.388383         0.543965
 H         1.345507        -0.584530         0.090232
 H         0.602055        -2.167197        -0.451326
 H         1.063100        -0.853482        -1.577067
 H        -3.710792         1.025917        -0.483212
 H        -1.558150         2.327548         0.761524
 H        -2.163804        -0.084127         2.182999
 H        -3.432566         1.015128         2.338912
 H        -4.978489        -0.495053         3.642718
 H        -5.897080         0.295793         2.548969
 H        -5.960517        -1.573256         2.647911
