19
Iteration:  4193
 C         0.908348        -0.908549         0.327368
 C        -0.421559        -0.401454         0.022699
 C        -1.614403        -0.139600        -0.156094
 C        -2.866265         0.693633        -0.033241
 O        -2.522063         2.103441        -0.120148
 C        -3.428794         0.677597         1.351047
 C        -4.549652        -0.429836         1.439968
 C        -4.017208        -1.891262         1.594132
 O        -5.631331        -0.113054         1.101253
 H         1.746997        -0.415012        -0.267441
 H         1.026349        -0.718554         1.401781
 H         0.872955        -1.975989         0.197615
 H        -3.644668         0.608833        -0.931567
 H        -1.629928         2.120812         0.240660
 H        -2.783757         0.466998         2.188578
 H        -3.918322         1.605984         1.502854
 H        -3.032248        -1.925937         1.046389
 H        -3.795788        -2.025942         2.702511
 H        -4.823774        -2.591580         1.192587
