19
Iteration:  4273charge 0 multiplicity 1
 C         0.886944        -0.891560         0.137088
 C        -0.505098        -0.484504         0.089796
 C        -1.693569        -0.195449         0.026487
 C        -2.795305         0.785833        -0.005202
 O        -2.252501         2.160329        -0.053310
 C        -3.642237         0.793612         1.227732
 C        -4.555036        -0.484783         1.369510
 C        -3.945109        -1.809850         1.685703
 O        -5.707423        -0.299403         1.113462
 H         1.396725        -0.107327        -0.385689
 H         1.342028        -1.014441         1.129636
 H         1.043184        -1.829054        -0.412297
 H        -3.379830         0.679075        -0.956903
 H        -1.344503         2.141414         0.276969
 H        -3.100817         0.888582         2.122962
 H        -4.355668         1.628145         1.106849
 H        -3.080478        -2.046394         1.051599
 H        -3.742919        -1.939866         2.801144
 H        -4.734195        -2.539299         1.460926
