19
Iteration:   157
 C         1.527882         0.023801         0.059575
 C         0.039101        -0.037944         0.070441
 C        -1.189428         0.009230         0.123567
 C        -2.687211         0.015815        -0.080688
 O        -3.027831         1.384713        -0.269002
 C        -3.190105        -0.517298         1.292555
 C        -4.743480        -0.365483         1.421771
 C        -5.479616        -1.653819         1.611853
 O        -5.212595         0.746505         1.432649
 H         1.894668         0.405266         1.011787
 H         2.054903        -0.917197        -0.130997
 H         1.859956         0.815803        -0.640294
 H        -2.918537        -0.607502        -0.908338
 H        -2.416943         1.808312        -0.890035
 H        -2.835628        -1.527717         1.312330
 H        -2.630864         0.120194         1.999590
 H        -5.403832        -1.727143         2.672755
 H        -6.495664        -1.490133         1.258356
 H        -4.886477        -2.461615         1.249005
