19
Iteration:  4598charge 0 multiplicity 1
 C         0.273148        -1.462636        -0.450808
 C        -0.726913        -0.660683         0.180613
 C        -1.624471         0.169802         0.124584
 C        -2.731350         1.178399         0.187748
 O        -2.493590         2.555905         0.033248
 C        -3.619805         0.821273         1.334845
 C        -4.268687        -0.581396         1.312925
 C        -4.261570        -1.451893         2.627965
 O        -4.711680        -0.959268         0.288595
 H         1.285363        -1.075362        -0.291986
 H         0.315336        -2.491426        -0.151876
 H         0.165785        -1.425431        -1.506885
 H        -3.459016         0.816890        -0.663500
 H        -1.795453         2.947928         0.676656
 H        -3.049220         0.915600         2.292994
 H        -4.393020         1.657530         1.431162
 H        -3.222887        -1.518684         2.911235
 H        -4.710495        -0.844632         3.411749
 H        -4.608520        -2.496095         2.429982
