19
Iteration:   395
 C         1.266598        -0.708449        -0.089148
 C        -0.134367        -0.208767         0.004493
 C        -1.256051         0.262660         0.028043
 C        -2.642606         0.815646         0.180771
 O        -2.799745         2.160221         0.427399
 C        -3.235911        -0.055177         1.344433
 C        -4.645830        -0.710960         1.151072
 C        -5.265321        -1.633285         2.295237
 O        -5.271157        -0.276907         0.213235
 H         1.774610        -0.138192         0.678047
 H         1.443694        -1.789963         0.081857
 H         1.628523        -0.488808        -1.131246
 H        -2.991699         0.490744        -0.774780
 H        -2.123800         2.564623        -0.060153
 H        -2.440498        -0.645502         1.585078
 H        -3.406812         0.670142         2.203304
 H        -5.329651        -1.149625         3.251515
 H        -6.188435        -2.086919         1.903825
 H        -4.563717        -2.497424         2.543679
