19
Iteration:  2941
 C         0.690817        -1.122377        -0.489188
 C        -0.662749        -0.627354        -0.221891
 C        -1.469042         0.266531        -0.141555
 C        -2.670145         1.070154         0.178264
 O        -2.413519         2.520358         0.265153
 C        -3.293851         0.457115         1.397235
 C        -4.346648        -0.751321         1.400911
 C        -5.020918        -1.179961         2.751579
 O        -4.925980        -1.060800         0.326306
 H         1.201945        -1.688648         0.318007
 H         0.622505        -1.662413        -1.440295
 H         1.345591        -0.309394        -0.804364
 H        -3.517844         0.948642        -0.620901
 H        -1.436815         2.589134         0.450085
 H        -2.542941         0.216968         2.221899
 H        -3.756364         1.279408         1.936893
 H        -4.989958        -0.454604         3.516641
 H        -6.039878        -1.504833         2.674617
 H        -4.457366        -1.942708         3.280333
