19
Iteration:  1354charge 0 multiplicity 1
 C         1.025153        -0.909561        -0.013975
 C        -0.234022        -0.030051         0.026494
 C        -1.356637         0.475594         0.136091
 C        -2.713762         0.923821         0.213852
 O        -2.815859         2.365224         0.421098
 C        -3.307429         0.160110         1.494791
 C        -4.363960        -0.806005         1.061107
 C        -5.395108        -1.290983         2.327725
 O        -4.677391        -1.140565        -0.096736
 H         1.556135        -0.655509        -0.906248
 H         1.813124        -0.759200         0.708631
 H         0.696767        -1.930390        -0.226185
 H        -3.321471         0.579182        -0.567553
 H        -3.700563         2.767422         0.121855
 H        -2.555239        -0.527980         1.907187
 H        -3.605374         0.765016         2.388046
 H        -5.623724        -2.295469         2.754059
 H        -5.085824        -0.690283         3.192164
 H        -6.389810        -0.939839         1.983041
