19
Iteration:  2593
 C         0.246157        -1.576698        -0.169512
 C        -0.776635        -0.514974         0.134480
 C        -1.675883         0.323567        -0.014929
 C        -2.832254         1.249020         0.062460
 O        -2.402203         2.528528         0.471426
 C        -3.741994         0.846668         1.190945
 C        -4.224976        -0.606969         1.077206
 C        -3.835424        -1.484269         2.424559
 O        -4.937793        -1.045074         0.240502
 H         0.837761        -1.762134         0.716260
 H        -0.202741        -2.534787        -0.342128
 H         0.929844        -1.360492        -0.953834
 H        -3.354060         1.437040        -0.850264
 H        -1.780145         2.457864         1.146177
 H        -3.119324         0.964940         2.046111
 H        -4.607674         1.600200         1.311691
 H        -3.448519        -2.499830         2.280179
 H        -3.213294        -1.057505         3.294598
 H        -4.789152        -1.625394         2.999343
