19
Iteration:   287charge 0 multiplicity 1
 C         1.440521        -0.437048        -0.007861
 C        -0.013644        -0.270196         0.138754
 C        -1.156103         0.182345         0.005568
 C        -2.611366         0.526113         0.147730
 O        -2.931753         1.875167        -0.125780
 C        -3.192220        -0.166103         1.452894
 C        -4.691004        -0.446412         1.404017
 C        -5.197632        -1.802873         1.851535
 O        -5.522383         0.179767         0.762663
 H         1.994932         0.018079         0.782244
 H         1.749821        -1.473263        -0.058845
 H         1.762988         0.055568        -0.949744
 H        -3.006912        -0.032327        -0.756748
 H        -2.533431         2.395009         0.538215
 H        -2.638260        -0.969493         1.818348
 H        -3.236441         0.582895         2.330505
 H        -4.709451        -2.246454         2.690303
 H        -6.261761        -1.650252         2.114532
 H        -5.099235        -2.379532         0.905525
