19
Iteration:  1695
 C         0.401346        -1.235103         0.130705
 C        -0.867973        -0.499659         0.080459
 C        -1.676337         0.408685         0.074186
 C        -2.828682         1.225772         0.315767
 O        -2.591012         2.582929         0.450809
 C        -3.536007         0.575168         1.476835
 C        -4.189801        -0.743159         1.051800
 C        -4.507540        -1.766280         2.102777
 O        -4.390031        -0.906750        -0.129750
 H         0.923716        -0.641584        -0.695626
 H         0.890236        -0.992532         1.081945
 H         0.403693        -2.302479        -0.054762
 H        -3.491837         1.177829        -0.622123
 H        -1.757289         2.845660         0.732647
 H        -2.766187         0.641337         2.279167
 H        -4.396644         1.168426         1.864724
 H        -4.643790        -2.629622         1.499823
 H        -3.806654        -1.929932         2.946919
 H        -5.463057        -1.548056         2.536223
