19
Iteration:  4190charge 0 multiplicity 1
 C         0.907945        -0.914587         0.321424
 C        -0.411552        -0.401797         0.019783
 C        -1.586633        -0.122127        -0.163508
 C        -2.850225         0.674150        -0.047437
 O        -2.555679         2.094917        -0.105156
 C        -3.449255         0.678808         1.363641
 C        -4.541638        -0.431839         1.429843
 C        -4.013502        -1.883982         1.592279
 O        -5.628152        -0.107472         1.103978
 H         1.780804        -0.504184        -0.226333
 H         0.976213        -0.694699         1.401686
 H         0.846985        -2.044048         0.174875
 H        -3.631346         0.562328        -0.877734
 H        -1.581338         2.109796         0.242455
 H        -2.742846         0.501889         2.243495
 H        -3.994539         1.647521         1.474283
 H        -3.049560        -1.916193         1.068303
 H        -3.817300        -1.945714         2.634702
 H        -4.818447        -2.497718         1.212754
