19
Iteration:  3786
 C         0.417373        -1.676616        -0.158193
 C        -0.474226        -0.549504         0.294610
 C        -1.384151         0.274075         0.171302
 C        -2.740618         1.055523         0.171876
 O        -2.531043         2.468661        -0.069238
 C        -3.777083         0.907764         1.310197
 C        -4.475965        -0.543539         1.310620
 C        -3.553431        -1.530271         2.117138
 O        -5.493602        -0.736722         0.628692
 H         0.158126        -2.141431        -1.094982
 H         1.505833        -1.401503        -0.135727
 H         0.529372        -2.454683         0.717673
 H        -3.212695         0.734279        -0.765216
 H        -3.087326         2.650719        -0.863542
 H        -3.378905         1.269745         2.311033
 H        -4.617936         1.599908         1.015956
 H        -2.624129        -1.543193         1.503843
 H        -3.277058        -0.975555         2.988732
 H        -4.038202        -2.500804         2.285560
