19
Iteration:   585charge 0 multiplicity 1
 C         1.248705        -0.514232        -0.632300
 C        -0.104480        -0.061070        -0.196548
 C        -1.225643         0.160787         0.268033
 C        -2.593950         0.688737         0.483814
 O        -2.578376         2.112978         0.867521
 C        -3.273042        -0.152988         1.615182
 C        -4.629176        -0.663796         1.122994
 C        -6.019906        -0.714733         2.045624
 O        -4.703256        -1.199790         0.008920
 H         2.081094         0.158526        -0.246734
 H         1.473349        -1.514849        -0.210977
 H         1.279387        -0.649923        -1.715021
 H        -3.098448         0.753758        -0.490095
 H        -3.490322         2.305249         0.958692
 H        -2.603435        -0.997213         1.789396
 H        -3.227517         0.595563         2.420973
 H        -6.502915         0.333912         1.829617
 H        -6.577729        -1.561688         1.553887
 H        -5.908948        -0.785226         3.128093
