19
Iteration:   250charge 0 multiplicity 1
 C         1.419101        -0.340963         0.049608
 C        -0.002603         0.005604        -0.042759
 C        -1.191322         0.070971         0.120991
 C        -2.564557         0.304286         0.121058
 O        -2.857088         1.686537        -0.067330
 C        -3.268005        -0.276879         1.392136
 C        -4.735333        -0.452732         1.309984
 C        -5.160977        -1.767001         1.799591
 O        -5.469529         0.473407         0.947873
 H         1.936489        -0.010910         1.005985
 H         1.398525        -1.465072         0.042543
 H         2.022637         0.104838        -0.777008
 H        -3.087925        -0.160806        -0.707877
 H        -3.487990         1.751764        -0.734464
 H        -2.673061        -1.133821         1.805867
 H        -3.229273         0.596511         2.067898
 H        -4.495821        -2.327938         2.555771
 H        -6.193726        -1.665045         2.183058
 H        -5.211670        -2.549218         0.988895
