19
Iteration:  4971
 C         0.683611        -0.848392        -0.931732
 C        -0.682137        -0.610609        -0.308742
 C        -1.768664        -0.134016        -0.111165
 C        -2.756865         0.866005         0.268320
 O        -2.318181         2.296671         0.292277
 C        -3.371532         0.616436         1.624737
 C        -4.360252        -0.559636         1.479551
 C        -5.453647        -0.674671         2.645268
 O        -4.201206        -1.439119         0.636184
 H         1.427428        -0.762081        -0.067307
 H         0.776373        -1.822166        -1.487251
 H         1.029998         0.008814        -1.619260
 H        -3.638762         0.947641        -0.429317
 H        -1.569230         2.209686        -0.392486
 H        -2.615786         0.423792         2.376698
 H        -3.928068         1.586742         1.814935
 H        -4.861414        -0.586051         3.545671
 H        -6.206730         0.163850         2.686214
 H        -5.838075        -1.605277         2.247522
