19
Iteration:   941charge 0 multiplicity 1
 C         1.412452         0.289057         0.399574
 C         0.035584         0.084517         0.026431
 C        -1.161081        -0.016939        -0.112588
 C        -2.655226         0.154168        -0.027205
 O        -2.753159         1.570684         0.539426
 C        -3.372605        -1.021775         0.716039
 C        -4.771816        -0.663094         1.068580
 C        -5.089182        -0.130098         2.575880
 O        -5.538749        -0.659819         0.161104
 H         1.942368         1.232492         0.212598
 H         1.356200         0.161596         1.505399
 H         2.008712        -0.613072         0.114448
 H        -3.157300         0.006693        -1.056329
 H        -3.233961         1.503633         1.398384
 H        -3.292884        -1.822440         0.021391
 H        -2.732379        -1.067387         1.629885
 H        -4.903094         0.912500         2.631010
 H        -6.098775        -0.361355         2.942015
 H        -4.291753        -0.719182         3.127337
