19
Iteration:   765
 C         1.420009        -0.350691        -0.343097
 C         0.012915        -0.005485        -0.077123
 C        -1.126915         0.354048         0.172652
 C        -2.609120         0.542007         0.359334
 O        -2.980940         1.924516         0.879849
 C        -3.210057        -0.657450         1.270707
 C        -4.683399        -0.769458         1.089794
 C        -5.696132        -0.054234         2.103034
 O        -5.029701        -1.297163         0.070936
 H         1.840982         0.623530        -0.461571
 H         1.916441        -0.876427         0.461076
 H         1.521316        -0.802920        -1.350452
 H        -3.119766         0.391053        -0.595815
 H        -2.102011         2.098833         1.393837
 H        -2.727255        -1.539958         0.931752
 H        -2.889360        -0.518330         2.299805
 H        -5.311325         0.936578         2.403460
 H        -6.609534        -0.007249         1.440980
 H        -5.921529        -0.895707         2.881603
