19
Iteration:    47
 C         1.471385         0.264222         0.075197
 C         0.020378        -0.022812         0.100880
 C        -1.186002        -0.195417        -0.016066
 C        -2.639159        -0.227684        -0.011236
 O        -3.067556         0.998261        -0.542172
 C        -3.120144        -0.411231         1.460869
 C        -4.662752        -0.238300         1.651430
 C        -5.462497        -1.333285         1.104284
 O        -5.170642         0.836645         1.921853
 H         1.976978         0.381793         1.022890
 H         1.860521        -0.648419        -0.412178
 H         1.742709         1.077643        -0.652405
 H        -2.972003        -1.030795        -0.720469
 H        -4.025701         0.904221        -0.615686
 H        -2.707622        -1.322985         1.723017
 H        -2.554912         0.394012         2.043590
 H        -5.053578        -2.264488         1.452811
 H        -6.528123        -1.353772         1.249376
 H        -5.268779        -1.319441         0.007409
