19
Iteration:  4810charge 0 multiplicity 1
 C         0.619449        -1.087232        -0.601630
 C        -0.733618        -0.482115        -0.481262
 C        -1.715368         0.227980        -0.424758
 C        -2.818023         1.009084         0.171407
 O        -2.428208         2.366140         0.367788
 C        -3.073972         0.276164         1.624119
 C        -4.319875        -0.685849         1.526244
 C        -5.381986        -0.660114         2.591078
 O        -4.338848        -1.372597         0.555483
 H         1.210183        -0.575748         0.088030
 H         0.626021        -2.160924        -0.392063
 H         1.124667        -0.855149        -1.559106
 H        -3.775376         1.025426        -0.476815
 H        -1.502660         2.310983         0.813713
 H        -2.177145        -0.078473         2.143137
 H        -3.453710         1.080499         2.350374
 H        -4.989657        -0.461917         3.628109
 H        -5.895002         0.325427         2.590984
 H        -6.069365        -1.522222         2.682001
