19
Iteration:   820charge 0 multiplicity 1
 C         1.534887        -0.207366        -0.178126
 C         0.058348         0.156927         0.057470
 C        -1.149031         0.308836         0.224413
 C        -2.658582         0.426433         0.231743
 O        -2.926219         1.712490         0.787563
 C        -3.243602        -0.799902         1.062437
 C        -4.786833        -0.706858         1.028934
 C        -5.364142         0.014211         2.231920
 O        -5.320245        -1.186176         0.051454
 H         2.169232         0.632598        -0.322104
 H         2.045298        -0.646164         0.681779
 H         1.493078        -0.963373        -0.986017
 H        -3.087461         0.502987        -0.780867
 H        -3.634790         1.533747         1.456488
 H        -3.029900        -1.625631         0.448487
 H        -2.764346        -0.831650         2.059700
 H        -4.879111         0.971733         2.034806
 H        -6.445560         0.216673         2.364808
 H        -4.906267        -0.369002         3.226867
