19
Iteration:  3176
 C         0.595420        -1.037972        -0.570945
 C        -0.600118        -0.340547        -0.285996
 C        -1.748199         0.121087        -0.252500
 C        -2.805382         0.951640         0.138604
 O        -2.245762         2.272274         0.629657
 C        -3.439949         0.465711         1.384113
 C        -4.294623        -0.737221         1.346104
 C        -5.029288        -0.700983         2.655584
 O        -4.605411        -1.421371         0.388482
 H         0.783403        -1.892098         0.098597
 H         0.414782        -1.298687        -1.657471
 H         1.431603        -0.268225        -0.696329
 H        -3.679925         1.149789        -0.632087
 H        -1.363937         2.285740         0.221681
 H        -2.769079         0.498616         2.246989
 H        -4.153733         1.360420         1.587073
 H        -4.365097        -0.417936         3.465841
 H        -5.722371         0.120810         2.585263
 H        -5.348992        -1.661516         3.026564
