19
Iteration:  4540charge 0 multiplicity 1
 C         0.169415        -1.522843         0.147255
 C        -0.731617        -0.505620        -0.266074
 C        -1.756696         0.172836        -0.286512
 C        -2.781623         1.202289         0.009012
 O        -2.440503         2.568165         0.143323
 C        -3.538781         0.810026         1.456774
 C        -4.283020        -0.585864         1.377546
 C        -3.920484        -1.660944         2.422445
 O        -4.906477        -0.836554         0.393020
 H         0.998374        -0.867142         0.458208
 H        -0.161406        -2.031424         1.039561
 H         0.532223        -2.168337        -0.615406
 H        -3.689790         1.113028        -0.672683
 H        -1.671172         2.542058         0.662771
 H        -2.911084         1.057203         2.342414
 H        -4.331688         1.516667         1.403471
 H        -2.835800        -1.800415         2.165552
 H        -3.971736        -1.297186         3.441948
 H        -4.572939        -2.493440         2.359625
