19
Iteration:  4785charge 0 multiplicity 1
 C         0.523515        -1.049951        -0.421575
 C        -0.695313        -0.353204        -0.661949
 C        -1.809357         0.177748        -0.550875
 C        -2.778855         0.971063         0.168988
 O        -2.325605         2.284924         0.353120
 C        -3.139938         0.384293         1.644504
 C        -4.267315        -0.620435         1.602084
 C        -5.295963        -0.783501         2.603412
 O        -4.392060        -1.333820         0.562983
 H         1.141936        -0.548567         0.362603
 H         0.245295        -2.064942        -0.154049
 H         1.146377        -1.073175        -1.334403
 H        -3.660476         1.022501        -0.435999
 H        -1.357155         2.241436         0.669228
 H        -2.304929        -0.120895         2.100816
 H        -3.326944         1.152532         2.464550
 H        -5.258368        -0.911458         3.679677
 H        -5.972754         0.165116         2.671292
 H        -5.864367        -1.627372         2.204025
