19
Iteration:  3266charge 0 multiplicity 1
 C         0.478651        -1.255896        -0.796336
 C        -0.598756        -0.521933        -0.304516
 C        -1.473847         0.226141         0.169076
 C        -2.727778         0.969438         0.358554
 O        -2.580871         2.390265         0.232182
 C        -3.406041         0.625543         1.666862
 C        -4.324888        -0.579959         1.461495
 C        -5.270891        -0.983919         2.536212
 O        -4.178838        -1.178539         0.349420
 H         0.589738        -2.234662        -0.235968
 H         0.341207        -1.610489        -1.864904
 H         1.522182        -0.858455        -0.796657
 H        -3.432217         0.478265        -0.463950
 H        -2.086920         2.632774        -0.512881
 H        -2.743419         0.322246         2.474180
 H        -4.070595         1.545279         1.905388
 H        -4.621279        -1.515413         3.226690
 H        -5.568114        -0.145924         3.165206
 H        -6.138960        -1.576920         2.218487
