19
Iteration:  1493
 C         0.839687        -0.819808        -0.109725
 C        -0.535618        -0.317382         0.021925
 C        -1.600858         0.234851         0.283603
 C        -2.803527         0.955747         0.307474
 O        -2.364899         2.446116         0.402233
 C        -3.807109         0.762474         1.421074
 C        -4.374159        -0.765745         1.155394
 C        -5.030282        -1.675355         2.169199
 O        -4.476201        -1.140931        -0.028080
 H         1.187043        -0.330569        -1.006610
 H         1.475372        -0.352164         0.662204
 H         0.840291        -1.897629        -0.371657
 H        -3.402708         0.681504        -0.667315
 H        -1.636974         2.321933         1.080480
 H        -3.280496         0.758879         2.379870
 H        -4.686694         1.384231         1.358171
 H        -4.886135        -1.422529         3.194066
 H        -6.042058        -1.637517         1.726593
 H        -4.623298        -2.706137         2.174778
