19
Iteration:  4986charge 0 multiplicity 1
 C         0.696661        -0.870398        -0.777628
 C        -0.686931        -0.539633        -0.445338
 C        -1.743163        -0.011737        -0.234613
 C        -2.814032         0.952987         0.167737
 O        -2.217706         2.242688         0.272424
 C        -3.443226         0.575801         1.592861
 C        -4.365753        -0.619542         1.589092
 C        -5.413282        -0.742541         2.626546
 O        -4.238846        -1.391294         0.709237
 H         1.410133        -1.000575        -0.000384
 H         0.802872        -1.841580        -1.329168
 H         0.972170        -0.108155        -1.543875
 H        -3.658555         0.895229        -0.525576
 H        -1.410042         2.326329        -0.313843
 H        -2.601850         0.244797         2.234937
 H        -3.890075         1.398005         2.178279
 H        -5.123438        -0.791822         3.703593
 H        -6.107423         0.086598         2.460942
 H        -6.097637        -1.616412         2.724631
