19
Iteration:  3869
 C         0.485796        -1.492223         0.125027
 C        -0.675191        -0.587509         0.346451
 C        -1.591898         0.216163         0.167304
 C        -2.794671         1.066166         0.110433
 O        -2.378739         2.435209        -0.317424
 C        -3.651841         0.963756         1.371731
 C        -4.329363        -0.468604         1.313789
 C        -3.592468        -1.753060         1.761863
 O        -5.514618        -0.688665         0.890211
 H         0.333558        -1.557880        -1.006233
 H         1.423319        -0.936466         0.234282
 H         0.380806        -2.469194         0.601196
 H        -3.454115         0.664156        -0.596229
 H        -3.184384         2.918509        -0.278405
 H        -3.040263         0.909144         2.290038
 H        -4.495541         1.656777         1.387893
 H        -3.234358        -2.211881         0.758054
 H        -2.688417        -1.505083         2.400583
 H        -4.242648        -2.548889         2.210152
