19
Iteration:  4507
 C         0.079936        -1.437751         0.259812
 C        -0.931482        -0.464960         0.050476
 C        -1.767830         0.310945        -0.278754
 C        -2.858986         1.232726        -0.065869
 O        -2.303318         2.515352         0.148818
 C        -3.396918         0.727954         1.316792
 C        -4.171763        -0.674592         1.217492
 C        -3.745594        -1.670895         2.244443
 O        -5.162717        -0.838367         0.569535
 H         0.934326        -0.776953         0.392144
 H        -0.029556        -2.038377         1.145320
 H         0.293290        -2.040157        -0.596725
 H        -3.624399         1.331892        -0.920918
 H        -1.362947         2.423788        -0.198245
 H        -2.595631         0.658897         2.081918
 H        -4.144935         1.435964         1.592842
 H        -2.811458        -2.264149         2.120699
 H        -3.618696        -1.110852         3.166321
 H        -4.363016        -2.534997         2.295887
