19
Iteration:  3589
 C         0.337259        -1.604150        -0.373832
 C        -0.447920        -0.400087         0.087591
 C        -1.427336         0.303635         0.150722
 C        -2.759201         1.033860         0.211711
 O        -2.584128         2.396319         0.100185
 C        -3.789423         0.815909         1.397415
 C        -4.376116        -0.522701         1.299939
 C        -4.152683        -1.399274         2.516199
 O        -4.879632        -0.891178         0.323298
 H        -0.345651        -2.384439        -0.649196
 H         1.045541        -1.467742        -1.189675
 H         0.939998        -2.107082         0.434169
 H        -3.361190         0.641305        -0.583815
 H        -1.780143         2.659942        -0.501671
 H        -3.278701         1.146445         2.333252
 H        -4.498166         1.635758         1.158913
 H        -3.237511        -1.953174         2.295067
 H        -3.971372        -0.740611         3.280557
 H        -4.983680        -2.045671         2.683738
