19
Iteration:  3039charge 0 multiplicity 1
 C         0.637301        -1.113048        -0.767695
 C        -0.572951        -0.662403        -0.168408
 C        -1.343570         0.264752         0.131340
 C        -2.587513         0.935086         0.374387
 O        -2.659728         2.464568         0.026403
 C        -3.294675         0.485372         1.625828
 C        -4.363634        -0.559436         1.442999
 C        -5.209435        -1.060090         2.619740
 O        -4.655095        -1.108175         0.353622
 H         1.130397        -1.961831        -0.268940
 H         0.355826        -1.548693        -1.711620
 H         1.350418        -0.327687        -0.890003
 H        -3.166721         0.604532        -0.557136
 H        -1.787867         2.899934         0.344745
 H        -2.430929         0.002080         2.270664
 H        -3.652461         1.175441         2.333457
 H        -4.988719        -0.734681         3.631143
 H        -6.275571        -0.998239         2.334975
 H        -4.950689        -2.116204         2.839907
