19
Iteration:   514charge 0 multiplicity 1
 C         1.225876        -0.629125        -0.467310
 C        -0.144112        -0.076202        -0.050182
 C        -1.299042         0.214208         0.208239
 C        -2.662023         0.720017         0.353560
 O        -2.588834         2.186523         0.734284
 C        -3.357764        -0.058680         1.472811
 C        -4.671604        -0.718309         1.081099
 C        -5.622813        -0.973016         2.293965
 O        -4.786255        -0.963929        -0.094428
 H         2.071409        -0.164422         0.022205
 H         1.193374        -1.693257        -0.130093
 H         1.235563        -0.717244        -1.588998
 H        -3.198832         0.678025        -0.617329
 H        -3.399635         2.351790         1.186643
 H        -2.767035        -1.024764         1.616264
 H        -3.561200         0.529831         2.415599
 H        -5.768574        -0.012986         2.724194
 H        -6.490229        -1.439493         1.839949
 H        -5.193448        -1.637082         3.095734
