19
Iteration:  3745charge 0 multiplicity 1
 C         0.475856        -1.443941         0.053715
 C        -0.754277        -0.629159        -0.113207
 C        -1.638215         0.214863         0.025068
 C        -2.764947         1.091203        -0.088142
 O        -2.292563         2.532786         0.130668
 C        -3.662923         0.858626         1.134252
 C        -4.321245        -0.585172         1.298205
 C        -3.815353        -1.649798         2.335199
 O        -5.355824        -0.799828         0.749537
 H         0.640854        -2.268239        -0.669770
 H         1.222041        -0.652210         0.054878
 H         0.371835        -1.862108         1.028632
 H        -3.328315         0.893137        -0.970675
 H        -2.218324         2.980920        -0.679438
 H        -3.028483         1.155658         1.942777
 H        -4.512703         1.557348         1.069209
 H        -2.779689        -1.810732         2.396869
 H        -4.109008        -1.247943         3.283284
 H        -4.398947        -2.561563         2.237624
