19
Iteration:  1301charge 0 multiplicity 1
 C         1.217925        -0.636740        -0.197428
 C        -0.207770        -0.179989         0.059428
 C        -1.264893         0.428564         0.302943
 C        -2.623694         0.687212         0.300766
 O        -2.774023         2.158333         0.270345
 C        -3.442636         0.212642         1.523934
 C        -4.583768        -0.692366         1.175152
 C        -5.475482        -1.301449         2.234984
 O        -4.738137        -0.937860        -0.002943
 H         1.682912        -0.176474        -1.102376
 H         1.772491        -0.347387         0.680235
 H         1.300448        -1.692934        -0.297581
 H        -3.174470         0.175446        -0.556035
 H        -3.636816         2.260246        -0.255658
 H        -2.859620        -0.564062         2.024751
 H        -3.618832         0.981055         2.289251
 H        -6.229051        -2.046318         1.859764
 H        -4.730886        -1.633427         3.004290
 H        -6.010265        -0.516559         2.781058
