19
Iteration:  1943charge 0 multiplicity 1
 C         0.552507        -1.345241         0.251426
 C        -0.742488        -0.483633         0.137830
 C        -1.695832         0.277001         0.105679
 C        -2.879153         1.207498         0.160394
 O        -2.448511         2.516851         0.568602
 C        -3.797663         0.849045         1.271589
 C        -4.411698        -0.552254         1.113425
 C        -3.835492        -1.780617         1.879693
 O        -4.977170        -0.962104         0.096047
 H         1.543619        -0.903150         0.145495
 H         0.480975        -1.801910         1.258373
 H         0.417075        -2.156074        -0.506400
 H        -3.432114         1.268948        -0.750558
 H        -1.749915         2.732560        -0.027731
 H        -3.274661         0.980228         2.231012
 H        -4.662396         1.514693         1.158705
 H        -4.568504        -2.244643         2.497418
 H        -3.424824        -2.510531         1.226221
 H        -3.088090        -1.622749         2.606186
