19
Iteration:  4844charge 0 multiplicity 1
 C         0.670084        -1.160094        -0.908886
 C        -0.519299        -0.431788        -0.392370
 C        -1.542542         0.210960        -0.048151
 C        -2.743084         0.999475         0.250649
 O        -2.553545         2.372347         0.397958
 C        -3.296694         0.413274         1.666142
 C        -4.409782        -0.661834         1.440715
 C        -5.309239        -0.545178         2.543225
 O        -4.426344        -1.538345         0.564387
 H         1.523744        -0.998473        -0.335791
 H         0.627110        -2.261547        -0.906784
 H         0.920930        -0.906514        -1.946759
 H        -3.621973         0.826687        -0.494946
 H        -1.563069         2.350693         0.455691
 H        -2.430049         0.146374         2.318442
 H        -3.803815         1.305118         2.159707
 H        -4.600115        -0.348790         3.386688
 H        -5.923747         0.296492         2.173885
 H        -5.903846        -1.493411         2.696758
