19
Iteration:  1983charge 0 multiplicity 1
 C         0.314067        -1.461029         0.293010
 C        -0.599857        -0.290809         0.223030
 C        -1.586329         0.454052         0.248112
 C        -2.776023         1.137520         0.258480
 O        -2.531760         2.614749         0.329305
 C        -3.669449         0.667667         1.325087
 C        -4.277246        -0.801906         0.964038
 C        -3.767717        -1.892252         1.881220
 O        -5.205385        -0.738926         0.170170
 H         1.366236        -1.147917         0.293034
 H         0.217597        -2.135157         1.178378
 H         0.075344        -2.134200        -0.576258
 H        -3.324942         0.811614        -0.717218
 H        -2.177335         2.933650        -0.587068
 H        -3.201104         0.799208         2.342221
 H        -4.456707         1.493212         1.320095
 H        -4.518245        -2.759419         1.944352
 H        -2.810583        -2.101138         1.238520
 H        -3.314765        -1.326442         2.772146
