19
Iteration:  2147
 C         0.710228        -1.112353         0.329740
 C        -0.623812        -0.536433         0.134227
 C        -1.602433         0.123723        -0.086651
 C        -2.736744         1.136186         0.069980
 O        -2.256396         2.429606         0.455468
 C        -3.896960         0.825573         1.122831
 C        -4.488505        -0.577175         1.079416
 C        -3.720073        -1.802249         1.701874
 O        -5.606136        -0.813830         0.651543
 H         1.356973        -0.367416         0.741741
 H         0.876925        -1.969451         0.968514
 H         1.006361        -1.506289        -0.641031
 H        -3.163346         1.189693        -0.971940
 H        -1.378677         2.240969         0.711208
 H        -3.303757         0.914184         2.014279
 H        -4.628875         1.632164         1.116245
 H        -2.927943        -1.557324         2.502519
 H        -4.552625        -2.395020         2.279657
 H        -3.489926        -2.528140         0.871462
