19
Iteration:  1820charge 0 multiplicity 1
 C         0.554630        -1.231885        -0.091704
 C        -0.645042        -0.510448         0.023392
 C        -1.559450         0.266603         0.356845
 C        -2.653900         1.256406         0.264278
 O        -2.413267         2.644717         0.680390
 C        -3.949532         0.723119         1.156691
 C        -4.377027        -0.706523         0.945279
 C        -4.223209        -1.563611         2.181500
 O        -4.889906        -1.212653        -0.019476
 H         1.241475        -0.569353        -0.665673
 H         0.998513        -1.421339         0.932495
 H         0.366800        -2.166114        -0.733335
 H        -3.036795         1.303971        -0.737541
 H        -1.933359         2.481906         1.449913
 H        -3.804282         0.625255         2.257428
 H        -4.604646         1.639412         0.948477
 H        -3.402710        -1.142062         2.786502
 H        -5.158441        -1.717102         2.692162
 H        -3.849130        -2.566949         1.965586
