19
Iteration:  2211
 C         0.817457        -1.120895         0.067905
 C        -0.408517        -0.399438         0.170394
 C        -1.481311         0.117528         0.245016
 C        -2.634316         0.972271         0.170087
 O        -2.320599         2.344632         0.313902
 C        -3.891690         0.781293         1.090390
 C        -4.529510        -0.605919         1.089209
 C        -3.916875        -1.696942         1.761435
 O        -5.714175        -0.760156         0.667394
 H         1.737133        -0.564742         0.410207
 H         0.705811        -2.176677         0.382393
 H         1.036357        -1.033572        -1.026460
 H        -2.996024         0.988477        -0.944474
 H        -1.900737         2.654372         1.066129
 H        -3.569167         1.122630         2.089889
 H        -4.682861         1.401818         0.672910
 H        -4.539914        -1.824509         2.691136
 H        -4.121593        -2.700498         1.260590
 H        -2.875968        -1.605414         2.090012
