19
Iteration:  2802charge 0 multiplicity 1
 C         0.497574        -1.366276        -0.470405
 C        -0.626443        -0.606182         0.099122
 C        -1.554273         0.196665         0.047980
 C        -2.761585         1.052044         0.225397
 O        -2.515655         2.460530         0.272974
 C        -3.525795         0.650444         1.381185
 C        -4.231561        -0.622666         1.233652
 C        -4.332718        -1.306625         2.516684
 O        -5.033588        -0.857713         0.261284
 H         1.007611        -1.901611         0.328334
 H         0.103438        -2.126070        -1.147454
 H         1.206611        -0.849046        -1.130092
 H        -3.329512         0.888399        -0.649625
 H        -1.686547         2.590764         0.868973
 H        -2.929952         0.565696         2.239126
 H        -4.405587         1.328553         1.545380
 H        -4.865139        -0.501123         3.089887
 H        -4.852704        -2.288469         2.440384
 H        -3.322845        -1.134639         2.970130
