19
Iteration:    40charge 0 multiplicity 1
 C         1.415396         0.234058         0.050510
 C         0.015516         0.027700         0.119211
 C        -1.157441        -0.208500         0.006898
 C        -2.597021        -0.268729        -0.034507
 O        -3.105664         0.984889        -0.506687
 C        -3.087487        -0.339446         1.458925
 C        -4.631966        -0.198877         1.616762
 C        -5.487044        -1.364936         1.044617
 O        -5.154948         0.841557         1.989204
 H         1.988644         0.337238         1.007549
 H         1.803734        -0.720975        -0.368691
 H         1.645107         1.099750        -0.583991
 H        -3.030031        -1.137039        -0.619527
 H        -3.835252         0.639208        -0.992541
 H        -2.699453        -1.345867         1.849067
 H        -2.745157         0.555009         1.965530
 H        -5.011537        -2.389069         1.194202
 H        -6.556251        -1.170925         1.290392
 H        -5.315350        -1.460770        -0.049333
