19
Iteration:   125
 C         1.527012         0.108767         0.085490
 C         0.073490         0.095507         0.071042
 C        -1.120316        -0.163128        -0.128478
 C        -2.574998        -0.038388        -0.022553
 O        -2.956798         1.261595        -0.400118
 C        -3.144275        -0.514118         1.378204
 C        -4.736255        -0.338372         1.508735
 C        -5.618696        -1.551228         1.506821
 O        -5.251237         0.786872         1.566991
 H         1.869424         0.442921         1.095957
 H         2.017382        -0.865539        -0.154563
 H         1.886467         0.963567        -0.561942
 H        -3.053248        -0.638039        -0.826043
 H        -3.736807         1.485825         0.303833
 H        -2.758951        -1.559606         1.384307
 H        -2.674502         0.081910         2.195057
 H        -5.503429        -1.965863         2.547433
 H        -6.707510        -1.386379         1.232700
 H        -5.166426        -2.313375         0.855597
