19
Iteration:  3020charge 0 multiplicity 1
 C         0.648498        -1.289873        -0.769481
 C        -0.488749        -0.410576        -0.269411
 C        -1.314516         0.365254         0.171395
 C        -2.637662         0.966616         0.266160
 O        -2.654354         2.330927         0.081814
 C        -3.276799         0.491735         1.668747
 C        -4.368010        -0.659491         1.487015
 C        -5.195880        -1.101239         2.636127
 O        -4.686254        -1.025200         0.344656
 H         1.105922        -2.055386        -0.104879
 H         0.384549        -1.792542        -1.708957
 H         1.440027        -0.496642        -0.827592
 H        -3.332524         0.542092        -0.554571
 H        -1.919988         2.715690         0.570003
 H        -2.521584         0.377667         2.455013
 H        -3.916474         1.365795         1.868135
 H        -5.053818        -0.564287         3.546438
 H        -6.197717        -1.017938         2.228903
 H        -5.203209        -2.135799         2.923432
