19
Iteration:  3724
 C         0.487689        -1.334934         0.149743
 C        -0.765298        -0.578871        -0.138372
 C        -1.745284         0.106859        -0.393939
 C        -2.767856         1.189837         0.021254
 O        -2.178574         2.464034         0.132506
 C        -3.705321         0.789576         1.275471
 C        -4.380249        -0.636681         1.351443
 C        -3.844740        -1.548483         2.404074
 O        -5.319056        -0.833430         0.673436
 H         0.638287        -2.218827        -0.517302
 H         1.306125        -0.615555         0.072301
 H         0.379646        -1.747868         1.115275
 H        -3.565661         1.358961        -0.788949
 H        -1.532616         2.516499        -0.634777
 H        -3.164113         1.014231         2.165043
 H        -4.486354         1.540260         1.168410
 H        -2.790212        -1.611228         2.471833
 H        -4.268123        -1.426254         3.403079
 H        -4.191410        -2.558479         2.124348
