19
Iteration:   265
 C         1.431369        -0.397737         0.020057
 C         0.027470        -0.086899         0.015538
 C        -1.172973         0.071768         0.124720
 C        -2.649038         0.388461         0.081120
 O        -2.816121         1.808958        -0.142058
 C        -3.230855        -0.138280         1.472330
 C        -4.741470        -0.448107         1.364293
 C        -5.219710        -1.871724         1.822332
 O        -5.475511         0.376727         0.853815
 H         1.863820         0.045377         0.883257
 H         1.644976        -1.459024         0.030951
 H         1.940812         0.110732        -0.813848
 H        -3.031960        -0.283756        -0.780341
 H        -3.812172         1.903001         0.217317
 H        -2.778076        -1.079923         1.558042
 H        -2.850968         0.477649         2.376179
 H        -4.518202        -2.205341         2.562159
 H        -6.199510        -1.920366         2.339885
 H        -5.222064        -2.549191         0.951444
