19
Iteration:  1561charge 0 multiplicity 1
 C         0.661984        -0.990374        -0.122005
 C        -0.512312        -0.307218         0.200711
 C        -1.506734         0.343017         0.282303
 C        -2.771732         0.970201         0.266363
 O        -2.485681         2.415673         0.712151
 C        -3.802713         0.594711         1.253613
 C        -4.327157        -0.751200         0.973592
 C        -4.738009        -1.472488         2.170701
 O        -4.624853        -1.200642        -0.093173
 H         0.902211        -0.457901        -1.052952
 H         1.575591        -0.774540         0.474470
 H         0.490858        -2.046063        -0.522865
 H        -3.135955         1.041790        -0.821359
 H        -2.067539         3.011214         0.153592
 H        -3.324026         0.766538         2.231489
 H        -4.591480         1.326323         1.025186
 H        -5.525302        -0.972101         2.735469
 H        -4.846656        -2.525144         2.121152
 H        -4.012411        -1.280449         2.965412
