19
Iteration:  1066
 C         1.524696         0.012348         0.285915
 C         0.088341         0.104104         0.292264
 C        -1.094354         0.390591         0.035133
 C        -2.542741         0.131843        -0.078445
 O        -3.139049         1.524459         0.259720
 C        -3.215414        -0.901806         0.889722
 C        -4.703219        -0.686487         1.106361
 C        -5.231405        -0.524875         2.623151
 O        -5.463109        -0.344471         0.177865
 H         1.798950         0.743492        -0.492531
 H         2.026185         0.229940         1.229477
 H         1.927082        -0.921012        -0.105487
 H        -2.473212        -0.246203        -1.162873
 H        -4.091173         1.561834         0.016513
 H        -3.085056        -1.951353         0.510250
 H        -2.699020        -0.768891         1.844340
 H        -4.427420        -0.034898         3.341529
 H        -6.201711        -0.029576         2.558884
 H        -5.350230        -1.594584         2.913773
