19
Iteration:  3737charge 0 multiplicity 1
 C         0.459717        -1.370077         0.126142
 C        -0.760622        -0.642968        -0.153197
 C        -1.666339         0.160952        -0.149233
 C        -2.766972         1.111193        -0.056373
 O        -2.229264         2.554824         0.137637
 C        -3.684100         0.845076         1.197605
 C        -4.312457        -0.574474         1.317352
 C        -3.837125        -1.677443         2.385630
 O        -5.367798        -0.817106         0.715895
 H         0.543111        -2.118017        -0.717601
 H         1.374013        -0.772224         0.047530
 H         0.521824        -1.850230         1.072296
 H        -3.401956         0.988889        -1.075249
 H        -1.966636         2.851058        -0.727980
 H        -3.146817         1.107232         2.102875
 H        -4.606928         1.410074         1.130062
 H        -2.719821        -1.662204         2.468466
 H        -4.170917        -1.150365         3.350983
 H        -4.347061        -2.643533         2.193288
