19
Iteration:  4816charge 0 multiplicity 1
 C         0.578267        -1.056733        -0.638281
 C        -0.692067        -0.500088        -0.467636
 C        -1.713158         0.178659        -0.335215
 C        -2.747257         1.002510         0.153771
 O        -2.466751         2.402911         0.382368
 C        -3.142403         0.266051         1.632085
 C        -4.339063        -0.696741         1.511629
 C        -5.352241        -0.568626         2.624568
 O        -4.331238        -1.417120         0.521925
 H         1.434413        -0.636887         0.081055
 H         0.581635        -2.154363        -0.522177
 H         0.977512        -0.864280        -1.649270
 H        -3.593640         1.011734        -0.446302
 H        -1.583672         2.379602         0.711034
 H        -2.227762        -0.121030         2.128177
 H        -3.422693         1.030264         2.328486
 H        -4.912006        -0.554940         3.615389
 H        -6.007209         0.337813         2.445490
 H        -5.841942        -1.540046         2.575401
