19
Iteration:  3557
 C         0.256595        -1.639488        -0.378983
 C        -0.555333        -0.444783        -0.058234
 C        -1.258631         0.456853         0.371714
 C        -2.574229         1.157247         0.152813
 O        -2.653005         2.553556         0.058548
 C        -3.588753         0.749963         1.288194
 C        -4.298013        -0.578378         1.394100
 C        -4.331404        -1.484759         2.560454
 O        -4.957049        -1.002421         0.349408
 H        -0.329504        -2.491943        -0.500723
 H         0.940443        -1.579055        -1.206545
 H         0.869067        -1.924442         0.517654
 H        -3.074647         0.665635        -0.720273
 H        -2.384287         2.738718        -0.816679
 H        -3.094870         0.924886         2.276157
 H        -4.326481         1.519397         1.060921
 H        -3.323992        -1.935043         2.546602
 H        -4.497760        -0.915632         3.409220
 H        -5.092211        -2.222330         2.461117
