19
Iteration:  3955
 C         0.559860        -1.136185         0.470371
 C        -0.629259        -0.499218        -0.114421
 C        -1.636801         0.149433        -0.360972
 C        -2.746287         1.062605        -0.226861
 O        -2.045434         2.467228        -0.001674
 C        -3.579885         0.728699         1.156137
 C        -4.516337        -0.544805         1.401045
 C        -3.836290        -1.935266         1.825678
 O        -5.731143        -0.663453         1.253416
 H         1.456882        -1.556460        -0.096622
 H         0.959198        -0.422395         1.203641
 H         0.271728        -1.979138         1.075490
 H        -3.506445         1.081918        -1.084415
 H        -2.417576         2.986574        -0.686078
 H        -2.788240         0.624882         1.921798
 H        -4.182567         1.562059         1.491429
 H        -3.464685        -2.440482         1.026248
 H        -2.991677        -1.914054         2.498527
 H        -4.587739        -2.509061         2.333730
