19
Iteration:  2616
 C         0.127107        -1.549936        -0.032188
 C        -0.730999        -0.383277        -0.136685
 C        -1.730842         0.328079        -0.036264
 C        -2.786863         1.294414         0.110732
 O        -2.255434         2.603938         0.355454
 C        -3.768514         0.733303         1.288174
 C        -4.256450        -0.664956         1.236343
 C        -3.965462        -1.582439         2.374950
 O        -4.833439        -1.054768         0.272601
 H         0.618912        -1.606443         0.924065
 H        -0.359372        -2.501861        -0.213520
 H         0.920114        -1.469280        -0.764775
 H        -3.446229         1.435844        -0.748882
 H        -1.513425         2.545717         1.061727
 H        -3.341731         1.060671         2.226119
 H        -4.649114         1.391684         0.997917
 H        -3.289466        -2.405768         2.151604
 H        -3.575234        -1.100272         3.306316
 H        -4.868453        -2.044760         2.849051
