19
Iteration:   344charge 0 multiplicity 1
 C         1.321842        -0.634527        -0.025172
 C        -0.030197        -0.023360        -0.041508
 C        -1.238338         0.157052         0.091671
 C        -2.643607         0.525451         0.197180
 O        -2.693708         2.054581         0.182333
 C        -3.273935        -0.060096         1.475386
 C        -4.737917        -0.471964         1.229003
 C        -5.019422        -1.756933         2.047197
 O        -5.552406        -0.024838         0.400865
 H         1.932485        -0.318518         0.829779
 H         1.094528        -1.689596         0.120345
 H         1.862328        -0.501323        -0.958563
 H        -3.124466         0.034286        -0.739556
 H        -3.690149         2.078994         0.330520
 H        -2.650798        -1.037461         1.568386
 H        -3.109753         0.553886         2.369718
 H        -4.818741        -1.476083         3.117830
 H        -6.033893        -2.129440         1.965411
 H        -4.356572        -2.599635         1.887611
