19
Iteration:  1450
 C         0.823284        -0.832514        -0.030009
 C        -0.459075        -0.254850         0.113135
 C        -1.490887         0.348008         0.029854
 C        -2.796043         1.004396         0.265036
 O        -2.571210         2.400808         0.407799
 C        -3.555268         0.435190         1.567775
 C        -4.435561        -0.757754         1.045941
 C        -5.100533        -1.442053         2.238714
 O        -4.519547        -1.224406        -0.122752
 H         1.280802        -0.424684        -0.950108
 H         1.575113        -0.499426         0.763288
 H         0.674642        -1.969407        -0.208500
 H        -3.440077         1.076239        -0.697475
 H        -2.154212         2.433272         1.359892
 H        -2.852267         0.059547         2.346141
 H        -4.127036         1.273159         2.025105
 H        -4.395653        -1.360583         3.057894
 H        -5.940483        -0.729902         2.427379
 H        -5.262014        -2.511146         2.041800
