19
Iteration:  2239
 C         0.925806        -1.127605        -0.059683
 C        -0.463302        -0.581305         0.309741
 C        -1.421518         0.154319         0.388721
 C        -2.697282         0.998186         0.126711
 O        -2.403542         2.443516         0.178860
 C        -3.829424         0.840475         1.228462
 C        -4.673751        -0.657218         1.167822
 C        -3.882912        -1.819650         1.825154
 O        -5.689543        -0.663154         0.528132
 H         1.763597        -0.641028         0.448608
 H         1.030932        -2.212007         0.104102
 H         0.955332        -1.037520        -1.155601
 H        -3.141245         0.868837        -0.832924
 H        -1.794973         2.779263         0.823288
 H        -3.381825         1.314298         2.127975
 H        -4.693479         1.447058         0.913181
 H        -4.587689        -2.461125         2.353285
 H        -3.424805        -2.518455         1.143377
 H        -3.035579        -1.518638         2.444198
