19
Iteration:  1298
 C         1.245315        -0.627574        -0.196761
 C        -0.183987        -0.161524         0.042612
 C        -1.263732         0.399830         0.312474
 C        -2.647673         0.698728         0.320625
 O        -2.767754         2.168646         0.249980
 C        -3.459266         0.170840         1.525238
 C        -4.562478        -0.680937         1.180067
 C        -5.503832        -1.304024         2.248876
 O        -4.751937        -0.929495        -0.010384
 H         1.546178        -0.155013        -1.104909
 H         1.785665        -0.360951         0.709948
 H         1.302567        -1.741038        -0.306893
 H        -3.050173         0.153855        -0.539479
 H        -3.591598         2.290665        -0.313553
 H        -2.855815        -0.587535         2.060966
 H        -3.699198         0.984837         2.260613
 H        -6.200837        -2.007234         1.850801
 H        -4.699886        -1.653651         2.948449
 H        -5.977051        -0.512323         2.905733
