19
Iteration:   761charge 0 multiplicity 1
 C         1.411362        -0.369864        -0.345344
 C        -0.003249         0.026251        -0.099662
 C        -1.150745         0.347161         0.187314
 C        -2.595752         0.542285         0.366669
 O        -2.944330         1.937392         0.868689
 C        -3.212311        -0.635536         1.268356
 C        -4.722534        -0.748144         1.102407
 C        -5.725306        -0.087381         2.122962
 O        -4.983936        -1.319188         0.052820
 H         1.846098         0.653131        -0.520055
 H         1.928802        -0.949143         0.456111
 H         1.538156        -0.778623        -1.357288
 H        -3.118395         0.308863        -0.585708
 H        -2.245840         1.960755         1.593081
 H        -2.697239        -1.622019         0.985662
 H        -2.921084        -0.443973         2.302150
 H        -5.270095         0.875867         2.342342
 H        -6.533755         0.095312         1.434835
 H        -5.975118        -0.736601         2.891747
