19
Iteration:  1546charge 0 multiplicity 1
 C         0.785931        -0.930680        -0.227307
 C        -0.490908        -0.296447         0.204001
 C        -1.611767         0.138787         0.365339
 C        -2.752128         1.122363         0.292109
 O        -2.479159         2.416929         0.640788
 C        -3.854749         0.651152         1.289637
 C        -4.398067        -0.751144         1.004530
 C        -4.766154        -1.502666         2.252591
 O        -4.552695        -1.181993        -0.147315
 H         1.203135        -0.548230        -1.153080
 H         1.527660        -0.830681         0.572327
 H         0.578244        -1.982921        -0.329973
 H        -3.228350         0.975802        -0.717468
 H        -1.831487         2.682034        -0.054661
 H        -3.556027         0.715102         2.337343
 H        -4.752994         1.274337         1.245540
 H        -5.521861        -0.923655         2.816438
 H        -5.288124        -2.409288         1.845511
 H        -3.827448        -1.711649         2.885414
