19
Iteration:   905
 C         1.480547         0.194245         0.272815
 C         0.045161         0.003774         0.075803
 C        -1.160264         0.017256        -0.126696
 C        -2.629212         0.206373         0.061000
 O        -2.767368         1.597136         0.709179
 C        -3.276915        -0.852697         0.780237
 C        -4.749594        -0.650877         1.048257
 C        -5.147065        -0.098499         2.341494
 O        -5.633796        -0.824439         0.229863
 H         1.806240         1.175051        -0.097553
 H         1.650324         0.051125         1.384753
 H         2.149366        -0.548536        -0.303105
 H        -2.955532         0.382101        -1.026019
 H        -3.668430         1.680664         1.045601
 H        -3.021083        -1.744723         0.173888
 H        -2.658088        -1.086380         1.689049
 H        -5.280014         0.953517         2.523621
 H        -6.122293        -0.530045         2.471701
 H        -4.529681        -0.380599         3.187548
