19
Iteration:   173charge 0 multiplicity 1
 C         1.415300        -0.017786         0.058957
 C         0.022613        -0.103858         0.048841
 C        -1.146683         0.029846         0.138874
 C        -2.523468         0.096971        -0.020666
 O        -2.978864         1.470816        -0.223843
 C        -3.186777        -0.436608         1.220602
 C        -4.667359        -0.376267         1.361039
 C        -5.475999        -1.676169         1.694611
 O        -5.252794         0.687978         1.374704
 H         1.804937         0.354802         1.067609
 H         1.844265        -1.041194        -0.112581
 H         1.761743         0.706851        -0.697877
 H        -2.893066        -0.495490        -0.943129
 H        -3.516236         1.416685        -1.112028
 H        -2.758615        -1.482586         1.486828
 H        -2.978743         0.242042         2.052786
 H        -5.524733        -1.977626         2.822935
 H        -6.535597        -1.634286         1.336761
 H        -5.033916        -2.607055         1.197885
