19
Iteration:  3364charge 0 multiplicity 1
 C         0.504120        -1.343709        -0.556114
 C        -0.645765        -0.447103        -0.428862
 C        -1.573624         0.186561        -0.011776
 C        -2.725836         1.114040         0.206478
 O        -2.385427         2.529746         0.492014
 C        -3.682389         0.758569         1.327547
 C        -4.380607        -0.586728         1.314751
 C        -4.867253        -1.102912         2.782225
 O        -4.446388        -1.419163         0.346406
 H         0.174848        -2.326384        -0.086543
 H         0.751812        -1.797944        -1.560307
 H         1.493520        -1.069543        -0.155637
 H        -3.121417         1.086865        -0.783590
 H        -1.513179         2.689879         0.221499
 H        -3.051164         0.758779         2.217383
 H        -4.431097         1.656930         1.344618
 H        -4.010976        -1.594252         3.279460
 H        -5.068732        -0.179774         3.345938
 H        -5.717823        -1.765692         2.663033
