19
Iteration:  1511
 C         0.798282        -0.804880        -0.181246
 C        -0.531195        -0.358236         0.041943
 C        -1.532731         0.240268         0.327400
 C        -2.750075         1.098210         0.350402
 O        -2.362928         2.354290         0.430177
 C        -3.946972         0.631888         1.420485
 C        -4.505928        -0.688558         1.125997
 C        -4.940755        -1.613910         2.166979
 O        -4.431992        -1.142327        -0.034853
 H         1.341675        -0.430275        -1.079041
 H         1.354693        -0.552401         0.715893
 H         0.811872        -1.874861        -0.227153
 H        -3.273034         0.968371        -0.569373
 H        -1.367746         2.444871         0.489338
 H        -3.733082         0.867324         2.465769
 H        -4.727626         1.319656         1.037889
 H        -4.956908        -1.341374         3.252167
 H        -5.857219        -2.163091         1.874202
 H        -4.219413        -2.507541         2.198878
