19
Iteration:  4230
 C         0.783391        -0.716895         0.227723
 C        -0.675366        -0.632695         0.178065
 C        -1.675871         0.003462        -0.090342
 C        -2.763718         0.914577         0.098760
 O        -2.099028         2.186407        -0.405692
 C        -3.449910         0.630046         1.470171
 C        -4.541286        -0.489268         1.284412
 C        -4.156498        -1.987104         1.616454
 O        -5.690346        -0.325226         1.175196
 H         1.245947         0.031638        -0.340409
 H         1.152853        -0.565692         1.256692
 H         1.278189        -1.649826        -0.100966
 H        -3.513888         0.732048        -0.561257
 H        -1.380353         2.390007         0.128243
 H        -2.606214         0.450010         2.083824
 H        -4.033349         1.546332         1.741550
 H        -3.215400        -2.440402         1.324948
 H        -3.938032        -1.991354         2.726079
 H        -4.914547        -2.751136         1.521814
