19
Iteration:  1615charge 0 multiplicity 1
 C         0.598167        -1.245731         0.059961
 C        -0.498002        -0.219425        -0.088359
 C        -1.464488         0.489055         0.094430
 C        -2.693930         1.208781         0.255023
 O        -2.578292         2.671080         0.668809
 C        -3.695191         0.563133         1.319382
 C        -4.311795        -0.768467         0.982146
 C        -4.669213        -1.651783         2.213469
 O        -4.693629        -1.299082        -0.053752
 H         1.370770        -1.237630        -0.686458
 H         0.995407        -1.057834         1.073106
 H        -0.039787        -2.179447         0.039141
 H        -3.282339         1.345004        -0.793733
 H        -1.745403         2.981495         0.903071
 H        -3.163304         0.550600         2.282129
 H        -4.547010         1.225744         1.479878
 H        -5.763601        -1.925290         2.076019
 H        -4.246262        -2.630956         1.975735
 H        -4.676077        -1.341514         3.277782
