19
Iteration:  2956charge 0 multiplicity 1
 C         0.666205        -1.230974        -0.576813
 C        -0.532736        -0.409876        -0.273969
 C        -1.445341         0.332690        -0.033648
 C        -2.722113         1.011763         0.133875
 O        -2.448131         2.421500         0.256124
 C        -3.350704         0.403630         1.518151
 C        -4.398528        -0.636468         1.433850
 C        -4.987679        -1.136433         2.756431
 O        -4.875001        -1.094935         0.299972
 H         0.975406        -1.817998         0.332836
 H         0.653781        -2.004232        -1.389496
 H         1.509697        -0.444296        -0.744114
 H        -3.297356         0.891468        -0.765463
 H        -1.590490         2.515457         0.577991
 H        -2.533871         0.147625         2.167737
 H        -3.991267         1.269744         1.996679
 H        -4.960402        -0.230399         3.419548
 H        -6.059227        -1.270466         2.493022
 H        -4.556719        -2.114260         3.022169
