19
Iteration:  4982
 C         0.705558        -0.861572        -0.820940
 C        -0.673861        -0.574992        -0.409009
 C        -1.774841        -0.045628        -0.208762
 C        -2.821497         0.964851         0.206697
 O        -2.234860         2.249776         0.267161
 C        -3.412421         0.559001         1.591736
 C        -4.369151        -0.577205         1.563413
 C        -5.419687        -0.730891         2.638596
 O        -4.220990        -1.405698         0.688710
 H         1.470018        -0.952733         0.017138
 H         0.777123        -1.853379        -1.359766
 H         0.951954        -0.033689        -1.574424
 H        -3.594106         0.838380        -0.604299
 H        -1.477929         2.400546        -0.272193
 H        -2.704827         0.264952         2.364558
 H        -3.896340         1.457814         2.106646
 H        -5.130255        -0.779340         3.687148
 H        -6.105899         0.146968         2.473656
 H        -6.050314        -1.645473         2.647172
