19
Iteration:  3614charge 0 multiplicity 1
 C         0.393518        -1.425992        -0.279326
 C        -0.702132        -0.561428         0.028894
 C        -1.725342         0.100698         0.220535
 C        -2.806509         1.089464         0.137643
 O        -2.409408         2.471438         0.026934
 C        -3.695247         0.851767         1.387100
 C        -4.256866        -0.539938         1.302984
 C        -4.055279        -1.461068         2.580943
 O        -4.960888        -0.887010         0.263456
 H         0.157519        -2.350395        -0.806807
 H         1.130876        -0.926656        -0.919484
 H         0.921295        -1.601088         0.629608
 H        -3.476652         0.846305        -0.769781
 H        -1.424571         2.653131         0.077839
 H        -3.106623         0.996530         2.268383
 H        -4.403797         1.654088         1.368614
 H        -3.143176        -2.048426         2.417457
 H        -3.971173        -0.826807         3.495574
 H        -4.868416        -2.200808         2.551723
