19
Iteration:  4538
 C         0.181941        -1.524748         0.168924
 C        -0.750830        -0.494106        -0.257540
 C        -1.756536         0.184512        -0.303024
 C        -2.797995         1.208962         0.010842
 O        -2.437405         2.565253         0.141574
 C        -3.541669         0.807794         1.435607
 C        -4.260710        -0.593602         1.393731
 C        -3.918590        -1.661835         2.414072
 O        -4.920211        -0.828386         0.399525
 H         1.020282        -0.903185         0.474869
 H        -0.195803        -2.042004         1.083007
 H         0.528547        -2.211421        -0.670351
 H        -3.618139         1.201384        -0.671096
 H        -1.588836         2.493938         0.624223
 H        -2.905558         0.984899         2.293436
 H        -4.334399         1.498931         1.400437
 H        -2.842036        -1.856101         2.133249
 H        -3.950776        -1.307815         3.454556
 H        -4.540619        -2.574787         2.361805
