19
Iteration:  3298
 C         0.352531        -1.284550        -0.846696
 C        -0.385073        -0.368191        -0.024570
 C        -1.506129         0.152362         0.162664
 C        -2.729489         0.936696         0.260006
 O        -2.564843         2.421459         0.333644
 C        -3.500135         0.651785         1.506973
 C        -4.295389        -0.605835         1.337974
 C        -5.113948        -0.933430         2.552390
 O        -4.260610        -1.271785         0.378264
 H         0.153506        -2.263340        -0.303275
 H        -0.271250        -1.430657        -1.795053
 H         1.445492        -1.198703        -1.093037
 H        -3.462375         0.665290        -0.635882
 H        -1.952822         2.766021        -0.423537
 H        -2.905455         0.459968         2.417023
 H        -4.253310         1.525524         1.754840
 H        -4.515193        -1.646375         3.123587
 H        -5.179174        -0.060904         3.189194
 H        -5.963004        -1.622394         2.512649
