19
Iteration:  2336
 C         0.639690        -1.114283         0.220365
 C        -0.672235        -0.601657         0.092664
 C        -1.563842         0.266440         0.042106
 C        -2.777494         1.019715         0.131597
 O        -2.588501         2.424137         0.089237
 C        -3.511514         0.741149         1.455257
 C        -4.389912        -0.599713         1.183660
 C        -3.933891        -1.915559         1.855470
 O        -5.364634        -0.543057         0.475537
 H         1.156164        -0.619587         0.994917
 H         0.569064        -2.144061         0.567966
 H         1.173403        -1.107276        -0.717952
 H        -3.310547         0.630409        -0.718812
 H        -1.780815         2.543862         0.513380
 H        -2.818433         0.546787         2.273255
 H        -3.916017         1.697539         1.766217
 H        -3.377681        -2.473678         1.092215
 H        -3.385192        -1.980572         2.786360
 H        -4.853373        -2.539079         2.138656
