19
Iteration:  2595
 C         0.241201        -1.564821        -0.163001
 C        -0.784506        -0.497625         0.118189
 C        -1.667512         0.318451        -0.020048
 C        -2.835076         1.232841         0.067506
 O        -2.392824         2.535666         0.466397
 C        -3.743996         0.865244         1.185013
 C        -4.215977        -0.626477         1.076386
 C        -3.843673        -1.495756         2.440794
 O        -4.937151        -1.042702         0.238828
 H         0.807176        -1.793610         0.744767
 H        -0.271614        -2.545500        -0.300076
 H         0.974290        -1.392761        -0.970394
 H        -3.347637         1.439207        -0.913479
 H        -1.740654         2.432242         1.177604
 H        -3.123536         1.018208         2.101023
 H        -4.624758         1.584713         1.411522
 H        -3.422352        -2.481059         2.277265
 H        -3.233839        -1.074675         3.263719
 H        -4.821783        -1.664314         2.967011
