19
Iteration:  4496
 C         0.120669        -1.401574         0.288290
 C        -0.987047        -0.504336         0.139316
 C        -1.845231         0.248558        -0.284440
 C        -2.760879         1.248296        -0.000808
 O        -2.281692         2.565560         0.125891
 C        -3.402874         0.688424         1.249360
 C        -4.191336        -0.660619         1.241582
 C        -3.667478        -1.691975         2.170412
 O        -5.255541        -0.848478         0.578838
 H         1.103533        -0.959390         0.375200
 H         0.028800        -2.064748         1.132977
 H         0.125103        -2.035869        -0.576286
 H        -3.584939         1.204127        -0.829266
 H        -1.529137         2.829569        -0.330950
 H        -2.563844         0.677988         1.979955
 H        -4.079097         1.427087         1.638110
 H        -2.667340        -1.787233         1.678883
 H        -3.400188        -1.202709         3.098293
 H        -4.322410        -2.488502         2.421722
