19
Iteration:  2601charge 0 multiplicity 1
 C         0.206710        -1.531675        -0.114625
 C        -0.763766        -0.472832         0.029482
 C        -1.682449         0.323122        -0.039818
 C        -2.829417         1.205562         0.069602
 O        -2.336727         2.577891         0.446185
 C        -3.765694         0.897593         1.205029
 C        -4.164062        -0.683183         1.155615
 C        -3.900260        -1.540547         2.477149
 O        -4.939747        -1.044237         0.215104
 H         0.727698        -1.799259         0.827909
 H        -0.462131        -2.391707        -0.254744
 H         0.933267        -1.459196        -0.925137
 H        -3.225887         1.294494        -0.927634
 H        -1.728282         2.364397         1.123749
 H        -3.213370         1.061762         2.139378
 H        -4.631778         1.426393         1.510543
 H        -3.346405        -2.463077         2.147135
 H        -3.209461        -0.927171         3.126137
 H        -4.908961        -1.827114         2.764387
