19
Iteration:  2377charge 0 multiplicity 1
 C         0.530836        -1.243837         0.350223
 C        -0.616071        -0.372620        -0.005684
 C        -1.650173         0.270916        -0.137763
 C        -2.813444         1.143937         0.073237
 O        -2.483497         2.513216         0.094811
 C        -3.441665         0.668886         1.418814
 C        -4.351714        -0.607776         1.138051
 C        -3.924785        -2.042881         1.999797
 O        -5.371819        -0.635451         0.500207
 H         1.139232        -0.973009         1.252809
 H         0.206230        -2.333858         0.498998
 H         1.141709        -1.241942        -0.606671
 H        -3.688512         1.097980        -0.672976
 H        -1.659223         2.668188         0.663789
 H        -2.620915         0.519167         2.145756
 H        -4.108648         1.431513         1.936382
 H        -2.823489        -2.091419         2.156500
 H        -4.451701        -1.883828         3.007468
 H        -4.541861        -2.830514         1.555285
