19
Iteration:  4921charge 0 multiplicity 1
 C         0.593872        -0.999160        -1.143297
 C        -0.442480        -0.396105        -0.398964
 C        -1.362241         0.096301         0.244617
 C        -2.578868         0.820343         0.323839
 O        -2.355146         2.236117         0.246757
 C        -3.535671         0.638623         1.683161
 C        -4.452127        -0.602874         1.537070
 C        -5.614536        -0.733426         2.603783
 O        -4.284476        -1.422011         0.631399
 H         1.547559        -1.106172        -0.687352
 H         0.298810        -2.014688        -1.470214
 H         0.703197        -0.465129        -2.084155
 H        -3.278151         0.464619        -0.527182
 H        -1.913271         2.322203        -0.566662
 H        -2.961355         0.699681         2.640862
 H        -4.235381         1.491255         1.577846
 H        -4.916931        -0.617559         3.472958
 H        -6.287623         0.132515         2.450329
 H        -6.255167        -1.661038         2.475292
