19
Iteration:  4094charge 0 multiplicity 1
 C         0.735681        -1.348518         0.004644
 C        -0.211780        -0.269440         0.527010
 C        -1.272865         0.312625         0.271292
 C        -2.667044         0.786123         0.099748
 O        -2.645759         2.173025        -0.334864
 C        -3.587656         0.711218         1.218681
 C        -4.559002        -0.467053         1.385056
 C        -3.983605        -1.900129         1.561797
 O        -5.683722        -0.260936         1.131524
 H         0.923988        -1.019007        -1.073008
 H         1.625388        -1.399992         0.614382
 H         0.137974        -2.248776        -0.081323
 H        -2.899224         0.266617        -0.760590
 H        -3.556155         2.389993        -0.773448
 H        -2.982950         0.999329         2.080970
 H        -4.342048         1.481073         1.156849
 H        -3.100684        -2.074135         0.794796
 H        -3.430038        -2.044074         2.563857
 H        -4.845288        -2.631299         1.454935
