19
Iteration:  3784charge 0 multiplicity 1
 C         0.414411        -1.665537        -0.148773
 C        -0.494068        -0.558095         0.273662
 C        -1.386771         0.274151         0.168950
 C        -2.738831         1.028308         0.162619
 O        -2.528730         2.489406        -0.047844
 C        -3.760826         0.903700         1.290298
 C        -4.481903        -0.559170         1.305443
 C        -3.578939        -1.526507         2.123812
 O        -5.474457        -0.733704         0.644008
 H         0.238289        -2.154590        -1.083377
 H         1.489808        -1.387391        -0.129289
 H         0.569048        -2.413255         0.725662
 H        -3.280942         0.728715        -0.858816
 H        -3.097613         2.700242        -0.888469
 H        -3.359559         1.281804         2.291741
 H        -4.544214         1.612917         0.954606
 H        -2.559064        -1.578848         1.540115
 H        -3.313585        -0.925039         3.050198
 H        -4.063064        -2.520708         2.273224
