19
Iteration:   860
 C         1.572030        -0.053683         0.041759
 C         0.092751         0.123991         0.046020
 C        -1.125744         0.232553         0.157010
 C        -2.622734         0.336303         0.069808
 O        -2.929624         1.594696         0.827688
 C        -3.235469        -0.815233         0.867949
 C        -4.774962        -0.677760         1.031082
 C        -5.306524        -0.060264         2.297703
 O        -5.569116        -1.005095         0.186269
 H         2.000086         0.925799        -0.300412
 H         2.011974        -0.314081         1.050442
 H         1.929112        -0.773896        -0.739096
 H        -3.071269         0.129891        -0.938461
 H        -2.371373         2.169301         0.295634
 H        -3.084904        -1.798489         0.309479
 H        -2.668037        -0.949591         1.795957
 H        -5.235215         1.020220         2.121150
 H        -6.308595        -0.474377         2.429668
 H        -4.719341        -0.249874         3.139849
