19
Iteration:   856charge 0 multiplicity 1
 C         1.561675        -0.060294         0.025108
 C         0.095625         0.134402         0.041670
 C        -1.130332         0.226669         0.176169
 C        -2.634464         0.359395         0.095324
 O        -2.945809         1.616000         0.800021
 C        -3.216328        -0.873169         0.897712
 C        -4.721784        -0.647266         1.012297
 C        -5.326129        -0.086233         2.260048
 O        -5.578207        -1.015946         0.201058
 H         2.044375         0.857961        -0.363553
 H         1.927708        -0.404929         0.978553
 H         1.869062        -0.764695        -0.723982
 H        -3.018445         0.287773        -0.929188
 H        -2.213424         2.249398         0.530895
 H        -3.005265        -1.806034         0.328790
 H        -2.694128        -0.999841         1.852791
 H        -5.268787         1.046275         2.138899
 H        -6.404326        -0.351922         2.388657
 H        -4.697652        -0.208880         3.202536
