19
Iteration:   675
 C         1.242575        -0.310858        -0.589906
 C        -0.115221        -0.172049        -0.135093
 C        -1.189883         0.226799         0.241382
 C        -2.575814         0.623146         0.458481
 O        -2.637480         2.044116         0.903643
 C        -3.259540        -0.311398         1.510392
 C        -4.719623        -0.669793         1.099283
 C        -5.890479        -0.360041         1.871753
 O        -4.768366        -1.379553         0.103779
 H         1.973970         0.490793        -0.419086
 H         1.643785        -1.185517        -0.041216
 H         1.320160        -0.641582        -1.632854
 H        -3.110172         0.528580        -0.515355
 H        -2.757584         2.055677         1.868487
 H        -2.592349        -1.206025         1.676371
 H        -3.367843         0.150308         2.455301
 H        -6.226947         0.716964         2.126456
 H        -6.776122        -0.892332         1.470962
 H        -5.777260        -0.805680         2.934708
