19
Iteration:  3208charge 0 multiplicity 1
 C         0.640053        -1.187905        -0.617653
 C        -0.514479        -0.335448        -0.465835
 C        -1.615553         0.153007        -0.184512
 C        -2.786802         0.989917         0.176300
 O        -2.316726         2.355550         0.484799
 C        -3.502115         0.537578         1.485578
 C        -4.416385        -0.568178         1.452516
 C        -5.264897        -0.931194         2.728221
 O        -4.386776        -1.327774         0.419574
 H         0.677796        -2.036134         0.081325
 H         0.491854        -1.625545        -1.633536
 H         1.602310        -0.607621        -0.576939
 H        -3.649241         0.912654        -0.619700
 H        -1.810545         2.670327        -0.338968
 H        -2.709864         0.140628         2.194523
 H        -3.849543         1.429185         2.090461
 H        -4.467388        -0.991974         3.471937
 H        -5.998539        -0.146847         2.869620
 H        -5.759362        -1.913439         2.610826
