19
Iteration:  1387charge 0 multiplicity 1
 C         0.881482        -0.940915         0.065669
 C        -0.241951        -0.040063        -0.110719
 C        -1.276206         0.643169        -0.016143
 C        -2.685451         0.937461         0.187426
 O        -2.755806         2.380400         0.602498
 C        -3.390138         0.222253         1.471074
 C        -4.501210        -0.708709         1.038378
 C        -5.259388        -1.291418         2.231088
 O        -4.665631        -1.342097         0.018794
 H         1.520474        -0.858718        -0.793838
 H         1.459290        -0.925399         1.003917
 H         0.565504        -2.019092         0.090463
 H        -3.253688         0.664417        -0.668938
 H        -3.008788         2.852961        -0.278078
 H        -2.902289        -0.578826         2.047531
 H        -3.855043         0.926004         2.200754
 H        -4.677370        -2.184988         2.529273
 H        -5.411903        -0.686548         3.144252
 H        -6.277611        -1.479907         1.886263
