19
Iteration:   227charge 0 multiplicity 1
 C         1.501895        -0.288901         0.058751
 C         0.073866         0.046059        -0.006977
 C        -1.147543         0.097051         0.012777
 C        -2.565520         0.177273        -0.005225
 O        -3.014017         1.535131        -0.053651
 C        -3.199300        -0.263797         1.417508
 C        -4.738792        -0.380668         1.387442
 C        -5.313823        -1.739309         1.730737
 O        -5.485631         0.530244         1.050810
 H         1.962766         0.112532         1.033089
 H         1.655898        -1.405903         0.035848
 H         2.065028         0.275490        -0.712413
 H        -3.067854        -0.407667        -0.790457
 H        -2.350546         2.072327        -0.639044
 H        -2.795070        -1.342687         1.573708
 H        -2.901828         0.413489         2.201189
 H        -4.677010        -2.096434         2.646374
 H        -6.359057        -1.617510         2.048175
 H        -5.171722        -2.606528         1.037186
