19
Iteration:  2113
 C         0.490608        -1.172895         0.390532
 C        -0.696907        -0.503193         0.171016
 C        -1.696516         0.193142         0.080394
 C        -2.754071         1.125818         0.108228
 O        -2.314930         2.464822         0.339890
 C        -3.807615         0.798579         1.234180
 C        -4.369453        -0.611139         1.065402
 C        -3.584680        -1.911758         1.615526
 O        -5.508680        -0.695254         0.530582
 H         1.292322        -0.467167         0.560611
 H         0.372448        -1.948920         1.129510
 H         0.824604        -1.564201        -0.569287
 H        -3.398310         0.932927        -0.732257
 H        -1.398606         2.338734         0.278584
 H        -3.227756         0.699652         2.139392
 H        -4.563246         1.575771         1.307826
 H        -2.434023        -1.789281         1.638720
 H        -3.837351        -2.002491         2.735811
 H        -3.733847        -2.909880         1.118439
