19
Iteration:  4003charge 0 multiplicity 1
 C         0.669101        -1.084716         0.321929
 C        -0.649527        -0.524601         0.200007
 C        -1.755025        -0.090026        -0.078129
 C        -2.801437         0.913807        -0.147324
 O        -2.275913         2.212546        -0.010332
 C        -3.633166         0.838538         1.201249
 C        -4.381300        -0.480740         1.315124
 C        -3.707651        -1.788789         1.573473
 O        -5.608828        -0.408759         1.196690
 H         1.106522        -1.058850        -0.672801
 H         1.380106        -0.514105         0.992655
 H         0.719974        -2.212137         0.618587
 H        -3.468946         0.760132        -0.916797
 H        -2.981120         2.819142        -0.406367
 H        -2.830450         0.956799         1.949392
 H        -4.402332         1.636339         1.342505
 H        -2.954985        -2.168810         0.745187
 H        -3.092096        -1.736314         2.508111
 H        -4.512235        -2.550588         1.756677
