19
Iteration:   329
 C         1.303941        -0.595019        -0.026162
 C        -0.012805        -0.051495         0.019967
 C        -1.210817         0.140098         0.143343
 C        -2.617471         0.536573         0.131945
 O        -2.773107         1.983098         0.176607
 C        -3.345633        -0.125754         1.376583
 C        -4.748273        -0.559864         1.257356
 C        -5.043210        -1.770899         2.053281
 O        -5.454483         0.112862         0.518371
 H         1.848657        -0.192813         0.815914
 H         1.383640        -1.691376         0.020873
 H         1.802553        -0.389909        -1.002695
 H        -3.163571         0.238484        -0.742147
 H        -3.277740         2.322205        -0.647578
 H        -2.770078        -0.846546         1.826832
 H        -3.322410         0.699751         2.149439
 H        -4.596695        -1.718700         3.033942
 H        -6.092103        -2.121273         1.982466
 H        -4.373422        -2.505620         1.487995
