19
Iteration:  2993
 C         0.614374        -1.311844        -0.719187
 C        -0.219627        -0.166391        -0.331989
 C        -1.381405         0.188148        -0.028505
 C        -2.636659         0.874491         0.257646
 O        -2.657439         2.301406         0.217312
 C        -3.419919         0.522763         1.668406
 C        -4.523861        -0.539842         1.477733
 C        -5.084703        -1.052081         2.683491
 O        -4.658250        -1.053082         0.247889
 H         0.606425        -1.815602         0.242056
 H         0.133408        -2.003686        -1.416574
 H         1.645549        -1.134274        -0.819414
 H        -3.391081         0.577658        -0.458450
 H        -1.981463         2.587551         0.808000
 H        -2.856235         0.226062         2.607927
 H        -3.874225         1.513764         1.786125
 H        -4.715915        -0.599462         3.651659
 H        -6.180161        -1.208090         2.641166
 H        -4.774068        -2.115087         2.918770
