19
Iteration:  3378
 C         0.486619        -1.377655        -0.499808
 C        -0.636146        -0.411758        -0.337615
 C        -1.648617         0.194287        -0.127738
 C        -2.828434         1.090003         0.082854
 O        -2.346825         2.393602         0.561348
 C        -3.725353         0.690151         1.330744
 C        -4.299919        -0.688897         1.395722
 C        -4.769449        -0.995114         2.714677
 O        -4.418348        -1.262885         0.306142
 H         0.296837        -2.328028         0.045734
 H         0.670400        -1.406688        -1.575300
 H         1.329754        -0.858810        -0.037598
 H        -3.549868         1.221195        -0.786399
 H        -1.404193         2.471449         0.195098
 H        -3.102925         0.865678         2.240824
 H        -4.588714         1.386418         1.550385
 H        -3.930349        -1.455936         3.246394
 H        -5.075965        -0.159854         3.325554
 H        -5.601857        -1.670264         2.718348
