19
Iteration:   454charge 0 multiplicity 1
 C         1.221734        -0.738742        -0.235668
 C        -0.141195        -0.106050        -0.143747
 C        -1.268656         0.274269         0.121505
 C        -2.605299         0.778200         0.228790
 O        -2.736511         2.223508         0.568993
 C        -3.349605        -0.096397         1.440345
 C        -4.677832        -0.693031         1.118710
 C        -5.381514        -1.351590         2.355940
 O        -5.040592        -0.647453        -0.028488
 H         1.991414        -0.190004         0.332430
 H         1.253148        -1.762457         0.095804
 H         1.697141        -0.634098        -1.185111
 H        -3.115589         0.827146        -0.751475
 H        -2.360854         2.287943         1.554360
 H        -2.546081        -0.732797         1.864584
 H        -3.430994         0.553887         2.298671
 H        -5.647422        -0.467927         3.008111
 H        -6.417228        -1.606423         2.116849
 H        -4.842582        -2.103260         2.882163
