19
Iteration:  1081charge 0 multiplicity 1
 C         1.573236        -0.003169         0.234659
 C         0.094229         0.146927         0.302690
 C        -1.121011         0.236588         0.039181
 C        -2.594266         0.229142        -0.018714
 O        -3.205593         1.537334         0.223925
 C        -3.149458        -0.866361         0.960634
 C        -4.651322        -0.490509         1.184503
 C        -5.239581        -0.628622         2.470820
 O        -5.436946        -0.396402         0.220960
 H         2.087293         0.654893        -0.446553
 H         2.032248         0.144747         1.234941
 H         1.792984        -1.082628         0.004552
 H        -3.079175        -0.004051        -0.943001
 H        -3.780614         1.630843        -0.516267
 H        -3.094825        -1.837719         0.493632
 H        -2.623734        -0.950311         1.956940
 H        -4.687618        -0.167224         3.217416
 H        -6.259512        -0.236167         2.535867
 H        -5.345527        -1.714792         2.766033
