19
Iteration:  1528charge 0 multiplicity 1
 C         0.845609        -0.893834        -0.194440
 C        -0.498613        -0.304694         0.079498
 C        -1.592521         0.125688         0.368742
 C        -2.816959         0.983143         0.350979
 O        -2.374425         2.535492         0.527751
 C        -3.987230         0.713609         1.342108
 C        -4.489366        -0.736596         1.035269
 C        -4.882908        -1.656722         2.292447
 O        -4.446849        -1.138159        -0.132914
 H         1.152662        -0.422538        -1.136021
 H         1.656338        -0.768043         0.567108
 H         0.931042        -2.028026        -0.334537
 H        -3.162236         0.901676        -0.733189
 H        -1.469981         2.573716         0.153216
 H        -3.582514         0.726526         2.380218
 H        -4.730128         1.538622         1.337109
 H        -5.198803        -0.924491         3.028353
 H        -5.692724        -2.370267         2.189820
 H        -3.961809        -2.171702         2.444415
