19
Iteration:  3815
 C         0.268457        -1.582709        -0.145634
 C        -0.525760        -0.430710         0.258322
 C        -1.444334         0.301055         0.529149
 C        -2.745285         0.950088         0.232558
 O        -2.450137         2.335585        -0.257607
 C        -3.772141         0.950237         1.402981
 C        -4.381336        -0.445853         1.313872
 C        -3.525999        -1.552857         1.835294
 O        -5.412240        -0.766191         0.695885
 H        -0.053150        -2.037464        -1.091668
 H         1.312728        -1.286416        -0.062741
 H         0.053740        -2.318393         0.644166
 H        -3.101662         0.342033        -0.717931
 H        -3.190243         2.473637        -0.791489
 H        -3.326555         1.272377         2.366442
 H        -4.573281         1.642293         1.152289
 H        -2.761138        -1.737229         0.995343
 H        -3.052899        -1.201759         2.822164
 H        -4.278233        -2.332149         2.079850
