19
Iteration:  1331
 C         1.099964        -0.785071        -0.110142
 C        -0.252798        -0.184920         0.127324
 C        -1.312860         0.425619         0.135891
 C        -2.642381         0.836854         0.318126
 O        -2.877302         2.336517         0.311951
 C        -3.304748         0.126965         1.497544
 C        -4.451229        -0.768593         1.130115
 C        -5.400817        -1.210560         2.192336
 O        -4.704507        -1.040472        -0.014737
 H         1.615363        -0.378852        -0.966711
 H         1.903450        -0.511823         0.583469
 H         1.135124        -1.889046        -0.305799
 H        -3.292941         0.520655        -0.449084
 H        -3.800153         2.326026         0.364639
 H        -2.623500        -0.406465         2.176851
 H        -3.848359         0.755448         2.261314
 H        -5.554786        -2.273826         2.124349
 H        -4.881244        -1.208606         3.183695
 H        -6.427186        -0.769072         2.275687
