19
Iteration:  1116charge 0 multiplicity 1
 C         1.499345        -0.047672         0.238599
 C         0.076000         0.118705         0.029942
 C        -1.147061         0.251243         0.115937
 C        -2.663850         0.228774        -0.039435
 O        -3.068391         1.607559         0.192924
 C        -3.209997        -0.647572         1.175800
 C        -4.740220        -0.603754         1.166227
 C        -5.339023        -0.854068         2.541081
 O        -5.317363        -0.398534         0.119824
 H         2.188641         0.545487        -0.427702
 H         1.705330         0.219222         1.290782
 H         1.774603        -1.105296         0.113571
 H        -2.958826        -0.208963        -0.949532
 H        -2.585469         2.232308        -0.335221
 H        -2.716862        -1.610854         1.318689
 H        -3.031458        -0.028597         2.052585
 H        -4.774734        -0.126269         3.070693
 H        -6.398379        -0.628494         2.668141
 H        -5.034410        -1.806707         2.951031
