19
Iteration:   486charge 0 multiplicity 1
 C         1.170847        -0.680055        -0.344531
 C        -0.159681        -0.154543        -0.074203
 C        -1.203487         0.419220         0.044867
 C        -2.512778         0.741811         0.379174
 O        -2.649994         2.188438         0.723396
 C        -3.259022        -0.053272         1.543654
 C        -4.678645        -0.653546         1.108168
 C        -5.540592        -1.153610         2.225176
 O        -5.067277        -0.946133        -0.028264
 H         1.909368        -0.081261         0.242825
 H         1.316236        -1.716181        -0.035369
 H         1.364055        -0.591505        -1.410643
 H        -3.162357         0.671157        -0.507240
 H        -2.444278         2.643862        -0.055876
 H        -2.796875        -0.997644         1.796554
 H        -3.557631         0.567367         2.399891
 H        -5.673107        -0.224992         2.887173
 H        -6.373447        -1.590152         1.654390
 H        -5.177246        -1.969545         2.832739
