19
Iteration:  1195charge 0 multiplicity 1
 C         1.391269        -0.117086         0.015918
 C        -0.027051        -0.103867         0.039991
 C        -1.203958         0.090658         0.163179
 C        -2.623351         0.462784         0.247970
 O        -2.643664         1.925386         0.003091
 C        -3.257002        -0.147650         1.499533
 C        -4.759785        -0.715188         1.160429
 C        -5.448843        -1.126963         2.376463
 O        -5.331139        -0.677200         0.077901
 H         1.571928         0.603859        -0.869110
 H         1.868998         0.395449         0.863853
 H         1.748609        -1.113083        -0.219949
 H        -3.214533        -0.011452        -0.531524
 H        -2.453329         2.347935         0.877508
 H        -2.555923        -0.929885         1.965668
 H        -3.569177         0.551162         2.264064
 H        -6.339262        -0.491690         2.647267
 H        -5.900987        -2.037273         2.069267
 H        -4.697970        -1.227811         3.083884
