19
Iteration:  2226
 C         0.914978        -1.141960        -0.064816
 C        -0.418622        -0.539237         0.316314
 C        -1.436274         0.155828         0.270766
 C        -2.706635         1.010169         0.201944
 O        -2.382510         2.430439         0.223882
 C        -3.944009         0.763005         1.092621
 C        -4.566664        -0.540048         1.155508
 C        -3.915753        -1.803322         1.834763
 O        -5.665658        -0.692471         0.599146
 H         1.638872        -0.613341         0.497861
 H         0.997187        -2.178680         0.305576
 H         1.199741        -1.093318        -1.121382
 H        -3.002288         0.795353        -0.813142
 H        -1.869981         2.384442         1.078748
 H        -3.724130         0.904515         2.142026
 H        -4.616912         1.565043         0.756159
 H        -4.560700        -2.255163         2.639600
 H        -3.837363        -2.435792         0.923903
 H        -2.882542        -1.538075         2.261115
