19
Iteration:  2948charge 0 multiplicity 1
 C         0.687368        -1.184791        -0.510590
 C        -0.602002        -0.546026        -0.260743
 C        -1.467099         0.325218        -0.073780
 C        -2.702189         1.048806         0.146162
 O        -2.420968         2.485517         0.258962
 C        -3.292250         0.433767         1.452193
 C        -4.392695        -0.712296         1.344059
 C        -5.027304        -1.180765         2.764243
 O        -4.886395        -1.062038         0.360704
 H         1.199289        -1.750218         0.241066
 H         0.608485        -1.780188        -1.420776
 H         1.264493        -0.306667        -0.761431
 H        -3.393035         0.927330        -0.661129
 H        -1.522037         2.537628         0.491179
 H        -2.469963         0.145180         2.108784
 H        -3.980575         1.182256         1.868393
 H        -4.872248        -0.294065         3.485493
 H        -6.093840        -1.431591         2.588227
 H        -4.540159        -2.032978         3.309937
