19
Iteration:  3846charge 0 multiplicity 1
 C         0.293907        -1.461248        -0.025472
 C        -0.730983        -0.516374         0.265408
 C        -1.536070         0.332758         0.543295
 C        -2.775801         0.991527         0.149284
 O        -2.326521         2.337166        -0.396947
 C        -3.801600         0.910940         1.373345
 C        -4.280716        -0.490753         1.357345
 C        -3.494575        -1.802978         1.759349
 O        -5.398872        -0.571622         0.810842
 H         0.371824        -1.874116        -1.107023
 H         1.227112        -0.927446         0.208914
 H         0.140091        -2.239816         0.687994
 H        -3.180127         0.422150        -0.603776
 H        -3.187842         2.934089        -0.434068
 H        -3.281425         1.296759         2.238407
 H        -4.795897         1.313262         1.202614
 H        -2.987402        -2.353413         0.946123
 H        -2.789727        -1.682666         2.633373
 H        -4.285167        -2.499785         2.058419
