19
Iteration:  3274charge 0 multiplicity 1
 C         0.477858        -1.313861        -0.811025
 C        -0.575333        -0.431017        -0.234538
 C        -1.501606         0.181870         0.183263
 C        -2.725963         0.922963         0.345514
 O        -2.615225         2.346916         0.264329
 C        -3.436270         0.661180         1.651487
 C        -4.294867        -0.521059         1.342146
 C        -5.222589        -0.941149         2.541278
 O        -4.171337        -1.193883         0.364940
 H         0.498331        -2.278514        -0.314363
 H         0.079875        -1.450226        -1.848985
 H         1.478626        -0.787439        -0.863002
 H        -3.390524         0.637085        -0.524011
 H        -2.075930         2.513888        -0.490417
 H        -2.703815         0.328325         2.424301
 H        -4.027637         1.493507         2.169540
 H        -4.623496        -1.647098         3.151216
 H        -5.508202        -0.111959         3.191398
 H        -6.042987        -1.676674         2.335816
