19
Iteration:  5000
 C         0.685454        -0.951758        -0.709198
 C        -0.673477        -0.393048        -0.572839
 C        -1.720155         0.123080        -0.315390
 C        -2.876667         0.922425         0.147878
 O        -2.162087         2.228788         0.286882
 C        -3.420621         0.592811         1.597142
 C        -4.340282        -0.659466         1.634054
 C        -5.458671        -0.765562         2.710060
 O        -4.307291        -1.471111         0.692380
 H         1.024094        -0.950900         0.341319
 H         0.655566        -1.931538        -1.082877
 H         1.326716        -0.325038        -1.210298
 H        -3.582567         1.012100        -0.719596
 H        -1.391225         2.127111        -0.244774
 H        -2.444105         0.397006         2.202493
 H        -3.759521         1.529459         1.942084
 H        -4.971351        -0.589654         3.681653
 H        -6.114845         0.074406         2.558602
 H        -5.829621        -1.735124         2.480158
