19
Iteration:  1498charge 0 multiplicity 1
 C         0.831807        -0.817554        -0.138507
 C        -0.573872        -0.319896         0.029835
 C        -1.579098         0.274514         0.287361
 C        -2.823918         0.928549         0.364365
 O        -2.348584         2.423318         0.404367
 C        -3.827875         0.738387         1.375840
 C        -4.369351        -0.728420         1.135457
 C        -5.012910        -1.692189         2.150623
 O        -4.473821        -1.141295         0.006474
 H         1.291880        -0.316744        -1.045160
 H         1.436150        -0.424279         0.703975
 H         0.903622        -1.924202        -0.277557
 H        -3.298260         0.770565        -0.554823
 H        -1.559226         2.300230         0.921188
 H        -3.455695         0.810515         2.423814
 H        -4.682863         1.469393         1.267676
 H        -4.984104        -1.267287         3.206385
 H        -6.043979        -1.733823         1.795450
 H        -4.443359        -2.619270         2.031213
