19
Iteration:  1645charge 0 multiplicity 1
 C         0.448153        -1.221394         0.125669
 C        -0.622168        -0.191726        -0.017325
 C        -1.558107         0.532539         0.015633
 C        -2.796253         1.146463         0.189838
 O        -2.492605         2.601898         0.539610
 C        -3.612337         0.464796         1.406095
 C        -4.278906        -0.787296         1.010907
 C        -4.669174        -1.748291         2.296497
 O        -4.502538        -1.033865        -0.180178
 H         1.186634        -1.178847        -0.630749
 H         0.705749        -1.152784         1.197142
 H        -0.218162        -2.093735         0.166810
 H        -3.591048         1.147276        -0.526231
 H        -1.872918         2.576932         1.360620
 H        -2.970421         0.455907         2.295752
 H        -4.415964         1.155420         1.725110
 H        -5.499425        -2.462753         2.073674
 H        -3.829087        -2.509973         2.438362
 H        -4.764027        -1.168489         3.304707
