19
Iteration:  3356
 C         0.507533        -1.402524        -0.626548
 C        -0.634311        -0.465441        -0.449276
 C        -1.535476         0.239212         0.090288
 C        -2.616012         1.158138         0.239584
 O        -2.404594         2.576025         0.435808
 C        -3.623518         0.766688         1.308314
 C        -4.425632        -0.623789         1.278757
 C        -4.920507        -1.142048         2.736027
 O        -4.468160        -1.449308         0.434308
 H         0.217076        -2.236288         0.071255
 H         0.723065        -1.646996        -1.680970
 H         1.356991        -0.901908        -0.147357
 H        -3.388139         1.079491        -0.657668
 H        -1.532259         2.758088         0.124330
 H        -3.295614         0.785982         2.379592
 H        -4.351114         1.639956         1.290899
 H        -4.039346        -1.602647         3.179915
 H        -5.200085        -0.373454         3.470117
 H        -5.805733        -1.721743         2.633061
