19
Iteration:  2456
 C         0.506323        -1.406931         0.037677
 C        -0.848738        -0.713048         0.022037
 C        -1.622038         0.277003         0.224722
 C        -2.798055         1.209548         0.127724
 O        -2.474671         2.594802         0.225366
 C        -3.752558         0.799068         1.287336
 C        -4.344760        -0.558092         1.186731
 C        -3.742144        -1.718981         2.060034
 O        -5.176233        -0.864614         0.381794
 H         0.970554        -1.037121         0.963689
 H         0.546802        -2.533491         0.066025
 H         1.133199        -0.978186        -0.795950
 H        -3.314326         1.084085        -0.869172
 H        -1.492118         2.767210         0.470239
 H        -3.089373         0.845184         2.184524
 H        -4.570803         1.502966         1.476993
 H        -3.916500        -1.382114         3.120461
 H        -4.359317        -2.613338         1.831845
 H        -2.568663        -1.807655         1.990113
