19
Iteration:  3158charge 0 multiplicity 1
 C         0.692835        -0.994475        -0.618360
 C        -0.660300        -0.505851        -0.294199
 C        -1.704095         0.148185        -0.306658
 C        -2.711196         1.139212         0.117108
 O        -2.184014         2.354519         0.581188
 C        -3.483540         0.510072         1.344032
 C        -4.365943        -0.726154         1.312179
 C        -5.081759        -0.824670         2.755197
 O        -4.714349        -1.497471         0.482031
 H         0.980449        -1.738396         0.160830
 H         0.866443        -1.483541        -1.585493
 H         1.347723        -0.149021        -0.475257
 H        -3.383890         1.270833        -0.668114
 H        -1.216788         2.410204         0.437405
 H        -2.711763         0.433116         2.089804
 H        -4.144305         1.220742         1.839891
 H        -4.483866        -0.452681         3.599256
 H        -5.924816        -0.157369         2.452231
 H        -5.450500        -1.867695         2.939121
