19
Iteration:  2076
 C         0.411851        -1.364244         0.384367
 C        -0.601837        -0.364727         0.212744
 C        -1.606987         0.257827         0.146194
 C        -2.804772         1.106936         0.212807
 O        -2.483198         2.531924         0.181915
 C        -3.717964         0.784958         1.440595
 C        -4.397422        -0.561894         1.165630
 C        -3.610617        -1.899178         1.558594
 O        -5.371285        -0.772601         0.365174
 H         1.446353        -0.978605         0.652288
 H         0.158281        -2.104631         1.191236
 H         0.452287        -1.974854        -0.543616
 H        -3.365103         1.085934        -0.746715
 H        -1.615541         2.755671        -0.075571
 H        -3.177881         0.520606         2.377159
 H        -4.325960         1.691792         1.603871
 H        -2.830457        -1.897950         0.840250
 H        -3.171163        -1.823125         2.525925
 H        -4.267537        -2.737118         1.486088
