19
Iteration:  3622charge 0 multiplicity 1
 C         0.447055        -1.365255        -0.238633
 C        -0.845867        -0.636925        -0.010308
 C        -1.769418         0.112579         0.209857
 C        -2.810459         1.118789         0.102347
 O        -2.344915         2.452914         0.011926
 C        -3.662922         0.868993         1.341549
 C        -4.329495        -0.526377         1.334641
 C        -4.061437        -1.500791         2.504972
 O        -4.915438        -0.898067         0.348113
 H         0.261181        -2.264395        -0.768947
 H         1.078414        -0.728543        -0.865506
 H         0.907595        -1.487102         0.769393
 H        -3.311710         0.986200        -0.793726
 H        -1.409538         2.565543         0.272975
 H        -2.948897         0.898452         2.198727
 H        -4.422527         1.658373         1.514805
 H        -3.072644        -1.943092         2.468050
 H        -4.013353        -0.968718         3.399362
 H        -4.797671        -2.259946         2.613341
