19
Iteration:  3284charge 0 multiplicity 1
 C         0.392974        -1.360653        -0.861784
 C        -0.430262        -0.334217        -0.100191
 C        -1.548665         0.126731         0.198969
 C        -2.774375         0.950561         0.311228
 O        -2.628476         2.319568         0.315373
 C        -3.487205         0.673076         1.616083
 C        -4.347754        -0.475690         1.331920
 C        -5.083105        -0.912444         2.538116
 O        -4.182095        -1.274971         0.339157
 H         0.506848        -2.308608        -0.389319
 H         0.019541        -1.453398        -1.887206
 H         1.415880        -0.894626        -0.898523
 H        -3.372678         0.631527        -0.502572
 H        -2.066658         2.500931        -0.387800
 H        -2.684327         0.359622         2.340604
 H        -3.885309         1.597833         2.078457
 H        -4.367277        -1.565695         3.088163
 H        -5.492836        -0.080133         3.128691
 H        -6.012367        -1.337453         2.066797
