19
Iteration:  4629charge 0 multiplicity 1
 C         0.225870        -1.376692        -0.642916
 C        -0.596733        -0.507107         0.081636
 C        -1.476781         0.281430         0.324786
 C        -2.753968         1.023937         0.247503
 O        -2.364392         2.450517         0.071484
 C        -3.744491         0.876064         1.311435
 C        -4.308063        -0.553698         1.383359
 C        -4.477660        -1.352487         2.648418
 O        -4.639770        -1.128921         0.302746
 H         1.338490        -1.231415        -0.568522
 H         0.064077        -2.397495        -0.350412
 H        -0.041964        -1.247955        -1.651607
 H        -3.288197         0.736922        -0.753628
 H        -1.445979         2.537137         0.106964
 H        -3.242174         0.977846         2.279491
 H        -4.522763         1.592543         1.138124
 H        -3.515959        -1.516041         3.184104
 H        -5.107974        -0.713089         3.272804
 H        -4.850251        -2.397506         2.617536
