19
Iteration:  4175charge 0 multiplicity 1
 C         0.907109        -1.045511         0.349921
 C        -0.345421        -0.403417        -0.065764
 C        -1.463339         0.050680        -0.180537
 C        -2.763364         0.660656         0.003400
 O        -2.672144         2.070631        -0.112770
 C        -3.533048         0.647408         1.474567
 C        -4.534187        -0.415505         1.343943
 C        -4.029234        -1.791395         1.583662
 O        -5.650107        -0.130482         1.126460
 H         1.658153        -0.622792        -0.296690
 H         1.197595        -0.880411         1.402741
 H         0.839517        -2.136539         0.262467
 H        -3.346702         0.301223        -0.763692
 H        -1.747402         2.387112        -0.123151
 H        -2.719527         0.710003         2.213545
 H        -4.159791         1.567946         1.396085
 H        -3.130989        -2.112097         1.109402
 H        -3.833402        -1.957340         2.657676
 H        -4.776766        -2.530107         1.335537
