19
Iteration:  2050
 C         0.372406        -1.493599         0.358141
 C        -0.594027        -0.414154         0.266031
 C        -1.483521         0.419351         0.266988
 C        -2.855871         1.076935         0.189425
 O        -2.697860         2.560309         0.208730
 C        -3.689644         0.690059         1.305329
 C        -4.242721        -0.614704         1.049539
 C        -3.676864        -1.911168         1.635425
 O        -5.254128        -0.596110         0.392364
 H         1.374838        -1.067521         0.415228
 H         0.215648        -2.234919         1.173762
 H         0.436059        -2.038107        -0.624115
 H        -3.310284         0.976168        -0.821080
 H        -1.821104         2.734951         0.003201
 H        -3.116298         0.606671         2.257471
 H        -4.582511         1.335362         1.458650
 H        -3.065668        -2.368230         0.801517
 H        -2.755592        -1.624170         2.241276
 H        -4.400912        -2.568416         2.144200
