19
Iteration:  2318
 C         0.738609        -1.207272         0.157596
 C        -0.519605        -0.415543         0.172912
 C        -1.624470         0.151269         0.112202
 C        -2.890007         0.973015         0.145586
 O        -2.553465         2.364369         0.057783
 C        -3.636087         0.678660         1.499226
 C        -4.400196        -0.519848         1.219233
 C        -3.926551        -1.831205         1.759882
 O        -5.338416        -0.516202         0.482421
 H         1.529730        -0.732338         0.849739
 H         0.653888        -2.275634         0.386366
 H         1.198874        -1.139130        -0.850532
 H        -3.612046         0.827153        -0.678087
 H        -1.783016         2.558055         0.519479
 H        -2.901925         0.651095         2.375632
 H        -4.457113         1.412287         1.621171
 H        -3.739980        -2.627119         1.034626
 H        -3.060932        -1.721821         2.416315
 H        -4.758016        -2.268807         2.392450
