19
Iteration:   717
 C         1.309110        -0.367373        -0.476540
 C        -0.036772         0.076112        -0.146351
 C        -1.215511         0.242595         0.129512
 C        -2.598559         0.547809         0.499593
 O        -2.667116         1.951267         0.984533
 C        -3.242385        -0.413244         1.512405
 C        -4.619183        -0.692236         1.051156
 C        -5.816039        -0.289328         1.917144
 O        -4.959173        -1.396804         0.081403
 H         2.097963         0.438900        -0.504546
 H         1.528472        -1.165263         0.281058
 H         1.272223        -0.785162        -1.489196
 H        -3.173287         0.671944        -0.451136
 H        -3.082362         2.518275         0.203931
 H        -2.765298        -1.388685         1.870468
 H        -3.212404         0.215580         2.403979
 H        -5.532525         0.721561         2.306300
 H        -6.727729        -0.143836         1.359377
 H        -6.015779        -1.060250         2.649788
