19
Iteration:  4883
 C         0.653541        -1.219872        -1.139545
 C        -0.272164        -0.284613        -0.448624
 C        -1.203077         0.265523         0.106481
 C        -2.601061         0.885728         0.228353
 O        -2.472888         2.325953         0.313131
 C        -3.499299         0.561425         1.622932
 C        -4.531048        -0.624875         1.589302
 C        -5.623646        -0.764801         2.604313
 O        -4.426341        -1.474258         0.693407
 H         1.706561        -1.294389        -0.687871
 H         0.097035        -2.170355        -1.143624
 H         0.775557        -0.854893        -2.198997
 H        -3.144334         0.652203        -0.648381
 H        -1.567501         2.702621         0.169275
 H        -2.899749         0.547482         2.515508
 H        -4.111393         1.485216         1.782793
 H        -5.342212        -0.635092         3.644309
 H        -6.394301         0.015686         2.660952
 H        -6.054233        -1.737628         2.569765
