19
Iteration:  4423charge 0 multiplicity 1
 C         0.412571        -1.611058         0.155510
 C        -0.595381        -0.608592        -0.055614
 C        -1.519760         0.199400         0.245388
 C        -2.815887         1.110705         0.142798
 O        -2.474580         2.458792         0.025894
 C        -3.807568         0.961782         1.333061
 C        -4.413720        -0.485406         1.265406
 C        -3.463902        -1.620086         1.773883
 O        -5.475081        -0.721985         0.764001
 H         1.563094        -1.381017         0.221517
 H         0.167254        -1.985057         1.185537
 H         0.248377        -2.461291        -0.501936
 H        -3.258220         0.823026        -0.781013
 H        -1.801417         2.579564        -0.655701
 H        -3.389489         1.365378         2.319035
 H        -4.694688         1.647472         1.028254
 H        -2.562696        -1.532356         1.072993
 H        -3.012639        -1.417404         2.794911
 H        -3.924253        -2.589081         1.877309
