19
Iteration:   832charge 0 multiplicity 1
 C         1.457777        -0.168598        -0.093771
 C         0.093677         0.195086         0.053673
 C        -1.108498         0.244799         0.169783
 C        -2.573567         0.374688         0.293540
 O        -2.970290         1.724944         0.729360
 C        -3.223814        -0.810190         0.970441
 C        -4.733769        -0.743289         1.052992
 C        -5.334662         0.016641         2.236991
 O        -5.441883        -1.119194         0.082695
 H         1.973108         0.703301        -0.456515
 H         1.842861        -0.612693         0.805493
 H         1.669698        -0.826054        -0.942882
 H        -2.966071         0.203638        -0.712549
 H        -2.991951         1.775215         1.668290
 H        -2.989537        -1.634981         0.355591
 H        -2.750026        -1.124017         1.923824
 H        -5.089473         1.091978         2.183970
 H        -6.456215        -0.076479         2.232223
 H        -4.869439        -0.348158         3.258234
