19
Iteration:   258charge 0 multiplicity 1
 C         1.396579        -0.369768         0.037237
 C         0.025040        -0.026818        -0.016510
 C        -1.176608         0.051383         0.129428
 C        -2.601484         0.367419         0.070365
 O        -2.827835         1.746832        -0.101706
 C        -3.270012        -0.190226         1.438827
 C        -4.725973        -0.432901         1.368779
 C        -5.200405        -1.858016         1.793874
 O        -5.463434         0.419594         0.896367
 H         1.806651         0.026685         1.009047
 H         1.657524        -1.444491        -0.037060
 H         1.939233        -0.011282        -0.836923
 H        -2.933363        -0.222758        -0.786284
 H        -3.757065         1.846461        -0.311751
 H        -2.767113        -1.197719         1.776475
 H        -3.150185         0.416629         2.310511
 H        -4.397664        -2.057758         2.535980
 H        -6.155447        -1.708315         2.282870
 H        -5.239589        -2.583697         1.000347
