19
Iteration:  2727
 C         0.204249        -1.548436        -0.190181
 C        -0.770542        -0.486178        -0.139320
 C        -1.614916         0.342939         0.113539
 C        -2.745031         1.226129         0.196637
 O        -2.460374         2.630958         0.098472
 C        -3.526572         0.716352         1.506614
 C        -4.218378        -0.617398         1.313988
 C        -4.268384        -1.715864         2.462674
 O        -4.731764        -0.851651         0.216875
 H         0.489173        -1.632992         0.830132
 H        -0.187022        -2.501925        -0.528048
 H         1.107362        -1.374829        -0.768451
 H        -3.419481         1.058789        -0.654690
 H        -1.546493         2.789146         0.290724
 H        -2.992640         0.797848         2.459010
 H        -4.395518         1.429820         1.579223
 H        -3.872123        -1.357379         3.464404
 H        -5.377358        -1.885657         2.577586
 H        -3.725677        -2.600235         2.035312
