19
Iteration:   877
 C         1.543260         0.068570         0.117426
 C         0.109039         0.037468         0.103046
 C        -1.082464         0.166747        -0.038366
 C        -2.541406         0.352152         0.067652
 O        -2.867008         1.495520         0.787110
 C        -3.359566        -0.798901         0.839318
 C        -4.846891        -0.652989         1.040773
 C        -5.257860        -0.069809         2.441335
 O        -5.554782        -0.995650         0.113835
 H         1.985398         0.994380        -0.261682
 H         1.834027        -0.227323         1.104561
 H         1.951795        -0.685220        -0.527839
 H        -2.829147         0.585086        -0.951844
 H        -3.272959         2.179228         0.328494
 H        -3.130951        -1.732289         0.335293
 H        -2.866428        -0.877656         1.812990
 H        -5.300452         1.059046         2.313482
 H        -6.266918        -0.241114         2.870266
 H        -4.423486        -0.151398         3.221136
