19
Iteration:   951charge 0 multiplicity 1
 C         1.439825         0.281657         0.450994
 C         0.016929         0.111735         0.049473
 C        -1.172566        -0.060402        -0.194411
 C        -2.585924         0.176921         0.008898
 O        -2.838898         1.482231         0.481108
 C        -3.347821        -0.957156         0.770100
 C        -4.748003        -0.557797         1.076028
 C        -5.021037        -0.211686         2.522369
 O        -5.583264        -0.638739         0.171747
 H         1.908530         1.206222         0.088577
 H         1.478422         0.233215         1.571808
 H         2.082640        -0.566059         0.056261
 H        -3.142214         0.352230        -0.933195
 H        -3.152575         1.495756         1.456096
 H        -3.454916        -1.827681         0.167302
 H        -2.951756        -1.381021         1.726006
 H        -4.870489         0.811342         2.685067
 H        -6.064479        -0.371420         2.729285
 H        -4.352422        -0.691560         3.297897
