19
Iteration:  2686charge 0 multiplicity 1
 C         0.176758        -1.536476        -0.057332
 C        -0.939180        -0.567762         0.114631
 C        -1.792709         0.212617        -0.209882
 C        -2.854738         1.196275         0.094542
 O        -2.502370         2.569581         0.359845
 C        -3.479794         0.729401         1.510908
 C        -4.147331        -0.603739         1.213978
 C        -4.013357        -1.525985         2.400102
 O        -4.676208        -0.824029         0.095006
 H         0.779208        -1.640784         0.891529
 H        -0.155979        -2.547453        -0.455373
 H         0.855862        -1.033790        -0.822605
 H        -3.663340         1.088995        -0.726240
 H        -1.466170         2.651375         0.381066
 H        -2.608837         0.574031         2.257748
 H        -4.233853         1.479390         1.770726
 H        -3.179138        -1.346751         3.103554
 H        -4.975201        -1.250883         2.746397
 H        -4.167544        -2.558296         2.271522
