19
Iteration:  4010
 C         0.730755        -1.114747         0.283617
 C        -0.629623        -0.578196         0.174212
 C        -1.744548        -0.092518         0.009690
 C        -2.854576         0.937406        -0.083334
 O        -2.316618         2.203490        -0.064113
 C        -3.617025         0.869393         1.240067
 C        -4.348102        -0.410483         1.332540
 C        -3.705183        -1.783598         1.561531
 O        -5.641803        -0.426724         1.169702
 H         1.367362        -1.103422        -0.631029
 H         1.396302        -0.654238         1.008876
 H         0.845369        -2.098961         0.664938
 H        -3.462844         0.711635        -1.074963
 H        -3.058203         2.727309        -0.301963
 H        -2.959140         1.028755         2.119275
 H        -4.442226         1.568631         1.185920
 H        -3.128087        -1.853221         0.726093
 H        -3.100764        -1.865522         2.425098
 H        -4.404606        -2.622182         1.504122
