19
Iteration:  3621
 C         0.442461        -1.374509        -0.244822
 C        -0.834584        -0.624799        -0.003976
 C        -1.762682         0.107591         0.213566
 C        -2.811513         1.117524         0.105392
 O        -2.349606         2.453644         0.014092
 C        -3.666563         0.864184         1.343008
 C        -4.317682        -0.523587         1.336178
 C        -4.061444        -1.498110         2.514774
 O        -4.923017        -0.898174         0.333900
 H         0.244709        -2.277036        -0.797457
 H         1.089086        -0.750372        -0.880305
 H         0.907696        -1.478386         0.784157
 H        -3.320896         0.978706        -0.787709
 H        -1.444622         2.593182         0.236517
 H        -2.953893         0.906553         2.218586
 H        -4.423303         1.680679         1.502441
 H        -3.070583        -1.965495         2.473094
 H        -3.999057        -0.945436         3.408660
 H        -4.808223        -2.263105         2.607020
