19
Iteration:  3511charge 0 multiplicity 1
 C         0.276129        -1.535572        -0.239838
 C        -0.657650        -0.463659         0.045119
 C        -1.593237         0.303701        -0.103375
 C        -2.796674         1.118285         0.081721
 O        -2.528838         2.509915         0.173902
 C        -3.431484         0.664142         1.462811
 C        -4.312556        -0.513442         1.282734
 C        -4.376659        -1.384979         2.623803
 O        -4.752340        -0.976528         0.275831
 H        -0.060725        -2.558636        -0.356581
 H         0.846216        -1.277796        -1.125283
 H         1.058604        -1.611368         0.545425
 H        -3.492334         0.871788        -0.728966
 H        -1.790657         2.849488        -0.415526
 H        -2.513382         0.602279         2.102733
 H        -4.149286         1.399477         1.920893
 H        -3.347550        -1.444193         2.898705
 H        -4.984916        -1.083136         3.419072
 H        -4.637706        -2.350201         2.213973
