19
Iteration:  3881charge 0 multiplicity 1
 C         0.484594        -1.432339         0.161757
 C        -0.631504        -0.568263         0.319432
 C        -1.590404         0.126877        -0.011447
 C        -2.767666         0.997131         0.013377
 O        -2.416180         2.460563        -0.184818
 C        -3.599205         0.876485         1.369689
 C        -4.440856        -0.457728         1.315745
 C        -3.583779        -1.657113         1.749480
 O        -5.536584        -0.680328         0.929110
 H         0.679928        -1.809625        -0.870067
 H         1.422499        -1.022796         0.574226
 H         0.422428        -2.372181         0.777809
 H        -3.351581         0.736580        -0.848399
 H        -3.331010         2.937523        -0.256135
 H        -2.873487         0.951526         2.211567
 H        -4.227567         1.772564         1.502030
 H        -3.237855        -2.260703         0.806135
 H        -2.658918        -1.553686         2.383200
 H        -4.351540        -2.284138         2.318034
