19
Iteration:  4814
 C         0.588473        -1.067251        -0.627261
 C        -0.702774        -0.498539        -0.472666
 C        -1.720018         0.199881        -0.366046
 C        -2.769043         1.007023         0.153697
 O        -2.451680         2.390653         0.378114
 C        -3.116389         0.267152         1.629510
 C        -4.341348        -0.697828         1.513509
 C        -5.363548        -0.595300         2.609435
 O        -4.330783        -1.396962         0.537217
 H         1.389806        -0.593880         0.095542
 H         0.594653        -2.165293        -0.474770
 H         1.035614        -0.856497        -1.595622
 H        -3.666961         1.023065        -0.468908
 H        -1.589938         2.341078         0.735673
 H        -2.176116        -0.092988         2.175514
 H        -3.424691         1.004946         2.330106
 H        -4.962314        -0.515646         3.635558
 H        -5.925303         0.306019         2.518416
 H        -5.917286        -1.570448         2.626073
