19
Iteration:  3960
 C         0.545113        -1.111472         0.462796
 C        -0.630611        -0.495361        -0.055235
 C        -1.631396         0.133418        -0.371873
 C        -2.783595         1.120506        -0.221751
 O        -2.040437         2.414263        -0.024780
 C        -3.582775         0.691213         1.185181
 C        -4.564866        -0.567375         1.405661
 C        -3.823852        -1.947471         1.810951
 O        -5.711399        -0.628729         1.257145
 H         1.318879        -1.389185        -0.233155
 H         1.102705        -0.477605         1.203132
 H         0.397137        -2.061546         1.100894
 H        -3.257445         1.198747        -1.185597
 H        -2.343502         3.084067        -0.752201
 H        -2.749895         0.577736         1.894284
 H        -4.157293         1.616171         1.446675
 H        -3.349030        -2.509747         0.856060
 H        -2.975215        -1.716872         2.520881
 H        -4.593713        -2.576899         2.368737
