19
Iteration:  4460
 C         0.276156        -1.508813         0.329659
 C        -0.863337        -0.632288        -0.024372
 C        -1.724591         0.196196        -0.073653
 C        -2.826292         1.170365         0.000293
 O        -2.381855         2.462802         0.171687
 C        -3.656132         0.937577         1.309327
 C        -4.229965        -0.539978         1.277088
 C        -3.486368        -1.666306         1.903508
 O        -5.281673        -0.739019         0.672746
 H         1.230684        -1.023058         0.363886
 H        -0.035650        -1.937470         1.313536
 H         0.295817        -2.398651        -0.401836
 H        -3.567328         1.031629        -0.740649
 H        -2.039181         2.677666        -0.665189
 H        -3.051787         1.142926         2.165874
 H        -4.553054         1.508426         1.287277
 H        -2.643594        -1.897819         1.266830
 H        -3.143388        -1.320712         2.907002
 H        -4.042300        -2.646217         1.849804
