19
Iteration:  3787
 C         0.420749        -1.682543        -0.158742
 C        -0.463357        -0.545613         0.304123
 C        -1.384877         0.274705         0.173842
 C        -2.739946         1.070357         0.175358
 O        -2.532591         2.457339        -0.081707
 C        -3.787375         0.909786         1.321533
 C        -4.471255        -0.533901         1.313299
 C        -3.540740        -1.531638         2.111319
 O        -5.502932        -0.738581         0.621346
 H         0.107559        -2.137423        -1.109123
 H         1.505481        -1.402713        -0.147716
 H         0.494310        -2.465480         0.690689
 H        -3.174147         0.728049        -0.706193
 H        -3.070113         2.624348        -0.834882
 H        -3.393581         1.253515         2.306514
 H        -4.649159         1.587053         1.053841
 H        -2.669266        -1.529606         1.488822
 H        -3.256593        -1.005943         2.966204
 H        -4.018557        -2.487755         2.293423
