19
Iteration:  2644
 C         0.112003        -1.488176         0.067869
 C        -0.846182        -0.504885        -0.300417
 C        -1.682365         0.340251        -0.083391
 C        -2.804266         1.256052         0.163743
 O        -2.236095         2.678991         0.276296
 C        -3.777683         0.897364         1.475581
 C        -4.224733        -0.653597         1.292753
 C        -4.058523        -1.692883         2.341570
 O        -4.754151        -1.111173         0.204178
 H         0.565294        -1.571949         1.104124
 H        -0.296695        -2.516553        -0.157924
 H         0.955107        -1.393876        -0.674575
 H        -3.525071         1.350669        -0.686395
 H        -1.307481         2.510973         0.604099
 H        -3.091912         1.040120         2.367548
 H        -4.456571         1.714061         1.557248
 H        -3.061394        -2.173814         2.431350
 H        -4.096464        -1.185551         3.357445
 H        -4.731914        -2.513582         2.410390
