19
Iteration:  4227
 C         0.777441        -0.721544         0.224854
 C        -0.644571        -0.615919         0.174829
 C        -1.678339        -0.017660        -0.094441
 C        -2.767520         0.916085         0.087027
 O        -2.122366         2.185145        -0.404958
 C        -3.441572         0.616663         1.474934
 C        -4.522426        -0.498721         1.304517
 C        -4.153823        -1.954531         1.603148
 O        -5.698851        -0.306255         1.168193
 H         1.327072         0.086203        -0.349658
 H         1.094255        -0.629315         1.282203
 H         1.203305        -1.681848         0.029420
 H        -3.641575         0.676383        -0.711080
 H        -1.327191         2.438398         0.207631
 H        -2.666470         0.351818         2.178750
 H        -3.964794         1.492613         1.780865
 H        -3.203938        -2.462128         1.279085
 H        -3.973547        -1.989983         2.751875
 H        -4.843765        -2.838448         1.554596
