19
Iteration:  3533charge 0 multiplicity 1
 C         0.282614        -1.554355        -0.281290
 C        -0.659555        -0.519537         0.011634
 C        -1.389715         0.456492         0.139980
 C        -2.676944         1.128056         0.195180
 O        -2.560353         2.659635         0.035212
 C        -3.492200         0.692466         1.400266
 C        -4.182132        -0.727940         1.240412
 C        -4.361715        -1.476941         2.634295
 O        -4.950675        -0.968980         0.305351
 H        -0.388869        -2.396855        -0.487340
 H         0.705448        -1.406949        -1.269652
 H         1.065299        -1.966440         0.405239
 H        -3.279875         0.738024        -0.602505
 H        -2.049692         2.725839        -0.775471
 H        -2.764658         0.654104         2.269443
 H        -4.332625         1.441241         1.554539
 H        -3.440684        -1.676963         3.139818
 H        -4.798417        -0.648592         3.113261
 H        -5.054370        -2.295204         2.625723
