19
Iteration:  2705charge 0 multiplicity 1
 C         0.225080        -1.552464        -0.124234
 C        -0.844799        -0.573703         0.102535
 C        -1.710978         0.279996        -0.094673
 C        -2.893857         1.171794         0.181765
 O        -2.532234         2.569477         0.251745
 C        -3.455232         0.771127         1.469271
 C        -4.161480        -0.551238         1.264043
 C        -4.171222        -1.570626         2.384266
 O        -4.675357        -0.855555         0.155514
 H         0.775203        -1.822612         0.739367
 H        -0.270627        -2.404474        -0.580110
 H         0.906128        -1.213241        -0.911052
 H        -3.633418         1.119303        -0.629110
 H        -1.527809         2.666954         0.286224
 H        -2.642318         0.466438         2.119997
 H        -4.076078         1.551936         2.002966
 H        -3.390597        -1.182128         3.097569
 H        -5.200656        -1.654867         2.822532
 H        -3.745461        -2.450121         1.842800
