19
Iteration:  3970
 C         0.587854        -1.102321         0.464492
 C        -0.678070        -0.461666         0.055993
 C        -1.669496         0.125420        -0.353076
 C        -2.732957         1.136901        -0.204307
 O        -2.066402         2.312017        -0.042534
 C        -3.591444         0.668261         1.176735
 C        -4.459754        -0.670929         1.366904
 C        -3.795183        -1.888999         1.793624
 O        -5.763508        -0.529693         1.252035
 H         1.027136        -1.170918        -0.513283
 H         1.167751        -0.371595         1.092968
 H         0.378718        -2.164647         0.896016
 H        -3.464522         1.198431        -0.979155
 H        -2.353486         3.017283        -0.736397
 H        -2.734977         0.596449         1.880606
 H        -4.212768         1.556969         1.457795
 H        -3.324101        -2.380156         0.783468
 H        -2.939020        -1.597008         2.459031
 H        -4.496822        -2.688889         2.233101
