19
Iteration:   206
 C         1.591170        -0.176502         0.057246
 C         0.122075        -0.062198         0.067486
 C        -1.084832         0.051622        -0.068742
 C        -2.607748         0.171042         0.051182
 O        -3.068745         1.572192        -0.267667
 C        -3.174000        -0.373002         1.374831
 C        -4.736329        -0.375756         1.439256
 C        -5.451125        -1.727934         1.769768
 O        -5.442513         0.586183         1.158265
 H         2.026478         0.208941         1.049241
 H         1.942414        -1.242010        -0.051732
 H         2.062787         0.455096        -0.741418
 H        -3.056497        -0.444423        -0.813507
 H        -2.846854         2.082902         0.500779
 H        -2.779745        -1.460383         1.506275
 H        -2.905934         0.208213         2.275911
 H        -5.111671        -2.263451         2.749199
 H        -6.521849        -1.650106         1.517242
 H        -4.841293        -2.300450         0.989047
