19
Iteration:  2857
 C         0.605255        -1.139309        -0.373502
 C        -0.577310        -0.388953        -0.350860
 C        -1.718865         0.038075        -0.103805
 C        -2.752441         1.058334         0.177193
 O        -2.127089         2.323401         0.174072
 C        -3.641951         0.790483         1.531352
 C        -4.422629        -0.502938         1.447312
 C        -4.655012        -1.480130         2.627803
 O        -4.914131        -0.987515         0.361726
 H         0.770530        -1.619658         0.595172
 H         0.615505        -2.023868        -1.033326
 H         1.468295        -0.437854        -0.508908
 H        -3.471036         1.042431        -0.603610
 H        -1.236732         2.118034         0.487326
 H        -3.164882         0.776772         2.481639
 H        -4.482037         1.550727         1.473184
 H        -5.338677        -0.874467         3.278616
 H        -5.150160        -2.415297         2.252426
 H        -3.664370        -1.813451         3.038983
