19
Iteration:    44charge 0 multiplicity 1
 C         1.446687         0.256073         0.065055
 C         0.010998        -0.003770         0.106990
 C        -1.166148        -0.199202        -0.004585
 C        -2.622661        -0.250917        -0.028995
 O        -3.074991         0.993916        -0.519835
 C        -3.103172        -0.373955         1.458865
 C        -4.652200        -0.216675         1.643221
 C        -5.477236        -1.344565         1.078603
 O        -5.163432         0.837294         1.950394
 H         2.004037         0.347738         0.994234
 H         1.794111        -0.679822        -0.372527
 H         1.692642         1.067447        -0.607687
 H        -2.991534        -1.033021        -0.656741
 H        -4.043878         0.693986        -0.815373
 H        -2.676338        -1.371222         1.756760
 H        -2.662378         0.472012         1.997843
 H        -5.004883        -2.314492         1.280725
 H        -6.551408        -1.256142         1.267243
 H        -5.266732        -1.425352        -0.003180
