19
Iteration:  1799
 C         0.574586        -1.322605        -0.155796
 C        -0.667200        -0.482571         0.172238
 C        -1.515365         0.388857         0.312257
 C        -2.734373         1.279921         0.313042
 O        -2.458596         2.638620         0.638526
 C        -3.842940         0.752527         1.186084
 C        -4.365094        -0.725875         0.924677
 C        -4.294727        -1.621781         2.209472
 O        -4.838268        -1.234838        -0.057024
 H         1.210976        -0.654967        -0.779680
 H         1.121121        -1.444658         0.824803
 H         0.359701        -2.229792        -0.853104
 H        -2.993532         1.325414        -0.723992
 H        -1.903198         2.675399         1.490055
 H        -3.505840         0.809234         2.289382
 H        -4.795811         1.423911         0.998140
 H        -3.191735        -1.569760         2.517848
 H        -5.058316        -1.133830         2.851559
 H        -4.626386        -2.699230         2.043801
