19
Iteration:  3850
 C         0.320899        -1.462372        -0.041516
 C        -0.720442        -0.545277         0.303416
 C        -1.558989         0.328112         0.491048
 C        -2.767729         1.041778         0.147950
 O        -2.339462         2.352937        -0.401296
 C        -3.788488         0.899555         1.383663
 C        -4.266659        -0.509281         1.374467
 C        -3.512938        -1.782960         1.747670
 O        -5.428813        -0.577273         0.816717
 H         0.486765        -1.865395        -0.997471
 H         1.265813        -0.981787         0.272305
 H         0.224852        -2.265255         0.764134
 H        -3.299440         0.385644        -0.693475
 H        -3.036456         2.952415        -0.424836
 H        -3.230954         1.349335         2.242544
 H        -4.811515         1.269567         1.248616
 H        -2.995061        -2.452681         0.947731
 H        -2.772448        -1.685772         2.568769
 H        -4.294713        -2.545414         2.067373
