19
Iteration:  2281charge 0 multiplicity 1
 C         0.738043        -1.161517         0.021385
 C        -0.461210        -0.316598         0.198382
 C        -1.531234         0.208953         0.394911
 C        -2.802479         0.975860         0.205129
 O        -2.368782         2.289627        -0.013991
 C        -3.788383         0.764136         1.475720
 C        -4.535608        -0.586900         1.199535
 C        -3.917769        -1.862599         1.729741
 O        -5.496942        -0.602138         0.484134
 H         1.588730        -0.768395         0.517438
 H         0.585828        -2.220393         0.246883
 H         0.988702        -1.023424        -1.033305
 H        -3.282242         0.607173        -0.696404
 H        -1.679794         2.337343         0.622527
 H        -3.218169         0.782381         2.402418
 H        -4.502433         1.594846         1.458441
 H        -4.481810        -2.788905         1.421400
 H        -2.808076        -1.916160         1.496741
 H        -4.055877        -1.661212         2.858419
