19
Iteration:  1158
 C         1.569808        -0.047510         0.188018
 C         0.059101         0.014462         0.027009
 C        -1.193008        -0.019523        -0.066670
 C        -2.641011         0.412192         0.000985
 O        -2.897876         1.810257         0.100853
 C        -3.225472        -0.319911         1.362305
 C        -4.760229        -0.560755         1.283180
 C        -5.552852        -1.053754         2.456802
 O        -5.290517        -0.564598         0.155925
 H         1.932160         0.547325        -0.644338
 H         2.020921         0.302654         1.120709
 H         2.078264        -1.009167        -0.015182
 H        -3.204358         0.143805        -0.895299
 H        -2.235135         2.164113         0.809213
 H        -2.846480        -1.319622         1.493334
 H        -2.885776         0.305364         2.230753
 H        -5.922159        -0.423449         3.203724
 H        -6.348828        -1.725588         2.051956
 H        -4.945045        -1.841350         3.006875
