19
Iteration:  4355
 C         0.649549        -1.327076        -0.101639
 C        -0.519602        -0.514552         0.275760
 C        -1.455622         0.248338         0.333581
 C        -2.602292         1.015051         0.018545
 O        -2.401436         2.423865        -0.088955
 C        -3.793000         0.805204         1.016778
 C        -4.391120        -0.617480         1.255615
 C        -3.923697        -1.856779         1.909297
 O        -5.644488        -0.512048         1.051867
 H         1.584016        -0.769166        -0.433932
 H         0.941783        -1.947883         0.756522
 H         0.386908        -2.045462        -0.875552
 H        -3.001758         0.675716        -0.856754
 H        -1.503194         2.642307         0.026792
 H        -3.545082         1.201520         2.081307
 H        -4.630587         1.450658         0.691426
 H        -3.052562        -2.360661         1.434653
 H        -3.503217        -1.745035         2.900438
 H        -4.813273        -2.518545         1.906775
