19
Iteration:  2444
 C         0.451209        -1.353168         0.158268
 C        -0.758241        -0.580885        -0.034677
 C        -1.631092         0.253559         0.112765
 C        -2.758643         1.200345         0.133888
 O        -2.459626         2.604838         0.194773
 C        -3.707865         0.728339         1.348234
 C        -4.309922        -0.661610         1.209144
 C        -3.796443        -1.664546         2.066087
 O        -5.232587        -0.841254         0.399882
 H         1.080636        -1.113251         1.046096
 H         0.308363        -2.499864         0.041380
 H         1.066274        -1.151375        -0.801255
 H        -3.328978         1.074442        -0.869013
 H        -1.504189         2.620962         0.398037
 H        -3.013675         0.707433         2.229208
 H        -4.498667         1.522317         1.491689
 H        -3.667968        -1.534858         3.173257
 H        -4.566081        -2.489570         1.897113
 H        -2.964585        -2.217565         1.465343
