19
Iteration:  4095
 C         0.733889        -1.348903         0.008704
 C        -0.216998        -0.270159         0.527069
 C        -1.269055         0.316776         0.264603
 C        -2.658871         0.789440         0.098586
 O        -2.649290         2.173538        -0.333186
 C        -3.590341         0.705239         1.221738
 C        -4.565136        -0.465049         1.377030
 C        -3.990688        -1.904036         1.561748
 O        -5.671856        -0.258430         1.136541
 H         0.905786        -0.978276        -1.067225
 H         1.624246        -1.394405         0.606194
 H         0.149704        -2.224288        -0.084896
 H        -2.931405         0.224447        -0.750526
 H        -3.510833         2.391503        -0.794448
 H        -2.970510         1.001568         2.071366
 H        -4.333151         1.468414         1.141202
 H        -3.109903        -2.099947         0.828801
 H        -3.436274        -2.045015         2.558717
 H        -4.858784        -2.654083         1.466200
