19
Iteration:  2423
 C         0.434687        -1.373733         0.185285
 C        -0.593914        -0.313365         0.049125
 C        -1.655712         0.319627        -0.129805
 C        -2.832722         1.132802         0.139086
 O        -2.424410         2.482944         0.177165
 C        -3.608814         0.752544         1.382061
 C        -4.380747        -0.618950         1.210769
 C        -3.834539        -1.888464         2.078581
 O        -5.271494        -0.758596         0.401488
 H         0.874712        -1.168715         1.166461
 H        -0.015942        -2.410932         0.268063
 H         1.247220        -1.483903        -0.578716
 H        -3.603311         1.175792        -0.663188
 H        -1.524465         2.469495         0.466510
 H        -2.960698         0.900329         2.271326
 H        -4.376560         1.536146         1.429617
 H        -3.337117        -1.292025         2.879332
 H        -4.553465        -2.583767         2.595272
 H        -3.248193        -2.654665         1.427905
