19
Iteration:  2161
 C         0.758388        -1.127927         0.250381
 C        -0.561458        -0.443349         0.139459
 C        -1.578141         0.190044        -0.057429
 C        -2.721315         1.052373         0.083791
 O        -2.175619         2.400570         0.420929
 C        -3.847665         0.822798         1.129469
 C        -4.604523        -0.655670         1.092210
 C        -3.808132        -1.771953         1.747769
 O        -5.681748        -0.828861         0.649387
 H         1.447551        -0.417515         0.627388
 H         0.499774        -1.920311         0.959640
 H         1.323103        -1.383989        -0.648652
 H        -3.366569         1.215421        -0.748776
 H        -1.287215         2.361530         0.982922
 H        -3.611603         0.999421         2.188636
 H        -4.641134         1.503371         0.748615
 H        -3.079146        -1.441163         2.483352
 H        -4.477914        -2.551803         2.137633
 H        -3.039544        -2.119901         1.036440
