19
Iteration:  1068charge 0 multiplicity 1
 C         1.543949         0.013057         0.274490
 C         0.084743         0.105794         0.304383
 C        -1.101693         0.379347         0.021480
 C        -2.549267         0.126746        -0.062765
 O        -3.148191         1.540762         0.261452
 C        -3.212684        -0.901999         0.901063
 C        -4.698776        -0.668012         1.107223
 C        -5.237787        -0.527076         2.605252
 O        -5.458065        -0.350983         0.193493
 H         1.853101         0.702655        -0.471652
 H         2.020308         0.230161         1.243384
 H         1.911359        -0.973833        -0.118371
 H        -2.498766        -0.214299        -1.135694
 H        -4.126001         1.552510        -0.124632
 H        -3.120485        -1.926376         0.534109
 H        -2.600562        -0.761822         1.827265
 H        -4.473271        -0.091460         3.310928
 H        -6.205616        -0.062155         2.517340
 H        -5.301368        -1.647545         2.831043
