19
Iteration:  4421charge 0 multiplicity 1
 C         0.431277        -1.625784         0.138374
 C        -0.594769        -0.596859        -0.009818
 C        -1.517603         0.209902         0.231078
 C        -2.800011         1.104313         0.151350
 O        -2.473766         2.473607         0.016203
 C        -3.808608         0.942438         1.338538
 C        -4.406569        -0.479710         1.260553
 C        -3.462938        -1.609032         1.782468
 O        -5.507049        -0.735032         0.768215
 H         1.554790        -1.385598         0.174942
 H         0.202620        -1.996494         1.142495
 H         0.251324        -2.415459        -0.542872
 H        -3.331720         0.737426        -0.830273
 H        -1.721229         2.601995        -0.677077
 H        -3.352104         1.316527         2.350144
 H        -4.631845         1.648637         0.999765
 H        -2.627844        -1.520846         1.009008
 H        -3.080604        -1.386931         2.787087
 H        -3.962967        -2.560479         1.851957
