19
Iteration:  3165charge 0 multiplicity 1
 C         0.646201        -0.965550        -0.607394
 C        -0.663384        -0.450865        -0.269156
 C        -1.739732         0.131515        -0.298197
 C        -2.735072         1.065725         0.164530
 O        -2.225139         2.305496         0.600655
 C        -3.449069         0.503041         1.351040
 C        -4.300915        -0.783688         1.354872
 C        -5.028895        -0.726982         2.695955
 O        -4.693267        -1.469333         0.429507
 H         0.903464        -1.803035         0.076699
 H         0.633983        -1.546437        -1.576328
 H         1.577692        -0.316595        -0.496229
 H        -3.391857         1.305623        -0.765225
 H        -1.217989         2.371203         0.354014
 H        -2.685121         0.479094         2.142437
 H        -4.265317         1.246721         1.698005
 H        -4.423629        -0.368489         3.513801
 H        -5.947927        -0.171750         2.615770
 H        -5.500426        -1.698902         2.770135
