19
Iteration:   135charge 0 multiplicity 1
 C         1.509247         0.097925         0.081664
 C         0.079524         0.068431         0.102109
 C        -1.101121        -0.148648        -0.126366
 C        -2.570274        -0.022951         0.021523
 O        -3.036277         1.315275        -0.405393
 C        -3.185743        -0.533242         1.349659
 C        -4.760702        -0.323729         1.450658
 C        -5.543766        -1.617965         1.579457
 O        -5.239622         0.786639         1.521898
 H         1.916296         0.361771         1.052170
 H         1.927340        -0.887311        -0.173836
 H         1.901475         0.847342        -0.653155
 H        -2.956681        -0.685049        -0.717800
 H        -2.919774         2.023079         0.347322
 H        -3.037132        -1.589334         1.385854
 H        -2.644046        -0.081802         2.215240
 H        -5.627534        -1.999496         2.584047
 H        -6.512819        -1.307563         1.174646
 H        -5.050136        -2.340609         0.949030
