19
Iteration:   103
 C         1.499540         0.196308         0.114544
 C         0.067608        -0.008590        -0.052941
 C        -1.131849        -0.102216         0.008049
 C        -2.611927        -0.196420        -0.049440
 O        -3.030176         1.240512        -0.303932
 C        -3.193342        -0.447322         1.378836
 C        -4.668763        -0.321205         1.451845
 C        -5.599028        -1.542009         1.441500
 O        -5.142358         0.777823         1.659178
 H         1.772734         0.436842         1.163547
 H         2.031912        -0.755642        -0.150479
 H         1.909063         1.043558        -0.513698
 H        -2.919479        -0.828134        -0.912014
 H        -3.439006         1.343773        -1.157281
 H        -2.869060        -1.404550         1.794385
 H        -2.718999         0.408815         1.940328
 H        -5.583248        -2.197525         2.347059
 H        -6.554270        -0.960106         1.336899
 H        -5.499763        -2.119102         0.506917
