19
Iteration:    32
 C         1.414761         0.183849         0.022872
 C         0.002414         0.084864         0.149570
 C        -1.151188        -0.234213         0.016793
 C        -2.577709        -0.293048         0.010512
 O        -3.171442         0.954990        -0.513447
 C        -3.089024        -0.282212         1.466402
 C        -4.602383        -0.178744         1.529272
 C        -5.469374        -1.390631         0.968569
 O        -5.126312         0.822652         2.062115
 H         1.802569         0.382214         1.040509
 H         1.935164        -0.637483        -0.468035
 H         1.638388         1.062737        -0.557758
 H        -2.916586        -1.165116        -0.503292
 H        -3.564782         0.844067        -1.412113
 H        -2.772481        -1.144612         2.173474
 H        -2.670336         0.588974         1.930110
 H        -5.244590        -2.396077         1.405951
 H        -6.508503        -1.216545         1.323122
 H        -5.550541        -1.239310        -0.116499
