19
Iteration:  2572charge 0 multiplicity 1
 C         0.274403        -1.502943        -0.182588
 C        -0.833332        -0.672275         0.130849
 C        -1.624613         0.260016         0.055749
 C        -2.714578         1.172832         0.146680
 O        -2.429699         2.651454         0.436792
 C        -3.778622         0.808937         1.197740
 C        -4.318956        -0.634503         1.176570
 C        -3.838800        -1.402208         2.298670
 O        -4.939972        -1.058396         0.258883
 H         0.997977        -1.705355         0.597826
 H        -0.103226        -2.489826        -0.445276
 H         0.800359        -1.108997        -1.056559
 H        -3.143394         1.250466        -0.857445
 H        -1.722459         2.672163         1.190588
 H        -3.481300         1.206407         2.156184
 H        -4.778529         1.401098         1.107473
 H        -3.696108        -2.418107         1.927149
 H        -2.794436        -1.047155         2.622638
 H        -4.432714        -1.420035         3.251978
