19
Iteration:  1623
 C         0.496103        -1.228285         0.117861
 C        -0.488293        -0.208934        -0.136858
 C        -1.454256         0.530933         0.085819
 C        -2.685029         1.303452         0.258081
 O        -2.568740         2.582677         0.615737
 C        -3.709080         0.553151         1.340135
 C        -4.277194        -0.793879         1.011739
 C        -4.704185        -1.673590         2.187290
 O        -4.660616        -1.245216        -0.050357
 H         1.183535        -1.116426        -0.685941
 H         1.006738        -1.141486         1.090455
 H         0.085328        -2.246300         0.069607
 H        -3.299101         1.157823        -0.617748
 H        -1.705827         2.626132         0.978549
 H        -3.230080         0.377707         2.308673
 H        -4.546151         1.217859         1.585302
 H        -5.719940        -2.023229         1.991468
 H        -4.032913        -2.596223         2.131017
 H        -4.472393        -1.255898         3.229995
