19
Iteration:   991charge 0 multiplicity 1
 C         1.499192         0.231691         0.444662
 C         0.059129         0.078121         0.184002
 C        -1.149010         0.119855        -0.066905
 C        -2.621122         0.170590        -0.200612
 O        -2.996382         1.351148         0.468954
 C        -3.349324        -0.957554         0.752126
 C        -4.756239        -0.649644         1.104943
 C        -5.043318        -0.330266         2.608614
 O        -5.576821        -0.456627         0.204168
 H         1.750819         1.126011        -0.114613
 H         1.794215         0.379157         1.496815
 H         2.146227        -0.566633         0.015560
 H        -2.881185         0.062813        -1.266255
 H        -2.401773         2.009798         0.074442
 H        -3.207946        -2.007486         0.383033
 H        -2.658580        -0.733641         1.582380
 H        -4.550538         0.700038         2.728330
 H        -6.074896        -0.031059         2.526598
 H        -4.728065        -1.052319         3.388590
