19
Iteration:  1559
 C         0.670844        -0.978711        -0.126007
 C        -0.516526        -0.294622         0.193224
 C        -1.516533         0.306675         0.292973
 C        -2.765984         0.977944         0.272191
 O        -2.483446         2.407957         0.697146
 C        -3.813369         0.596636         1.273116
 C        -4.329020        -0.744541         0.969483
 C        -4.751193        -1.462847         2.169746
 O        -4.615792        -1.197894        -0.090341
 H         0.859474        -0.454845        -1.034267
 H         1.601776        -0.821277         0.445870
 H         0.549587        -2.018077        -0.513411
 H        -3.090325         1.037245        -0.847203
 H        -2.016072         3.089366         0.151169
 H        -3.370176         0.776560         2.250990
 H        -4.634611         1.264133         1.053438
 H        -5.536282        -0.954947         2.722017
 H        -4.879222        -2.559900         2.091718
 H        -3.898982        -1.355220         2.950766
