19
Iteration:  2568
 C         0.292436        -1.488230        -0.216581
 C        -0.859588        -0.681795         0.128625
 C        -1.596595         0.248998         0.091433
 C        -2.724650         1.161503         0.181161
 O        -2.412685         2.655524         0.418911
 C        -3.831379         0.864016         1.197761
 C        -4.294088        -0.583889         1.167369
 C        -3.823597        -1.455884         2.318900
 O        -4.972740        -1.080456         0.230265
 H         0.922751        -1.649744         0.679550
 H        -0.069703        -2.495128        -0.398241
 H         0.919461        -1.222141        -1.055580
 H        -3.120088         1.285073        -0.805263
 H        -1.765167         2.781344         1.116287
 H        -3.423383         1.207380         2.154401
 H        -4.732582         1.412578         0.986450
 H        -3.776220        -2.552438         2.053834
 H        -2.787838        -1.141835         2.619733
 H        -4.235688        -1.414295         3.345272
