19
Iteration:  3803
 C         0.343194        -1.650426        -0.109125
 C        -0.444006        -0.474006         0.288809
 C        -1.407258         0.278526         0.364208
 C        -2.687633         0.985754         0.224642
 O        -2.491632         2.413083        -0.221647
 C        -3.908806         0.902010         1.414634
 C        -4.461365        -0.481031         1.299170
 C        -3.534616        -1.484480         1.939761
 O        -5.419693        -0.739667         0.674603
 H        -0.082147        -1.835444        -1.139455
 H         1.390165        -1.550026        -0.383446
 H         0.275541        -2.538920         0.473481
 H        -3.299162         0.479899        -0.607339
 H        -3.174964         2.649737        -0.920858
 H        -3.465108         0.958368         2.401373
 H        -4.530267         1.747187         1.179209
 H        -2.678405        -1.794560         1.274299
 H        -2.953286        -1.124886         2.858337
 H        -3.984837        -2.480247         2.080757
