19
Iteration:  4562
 C         0.317260        -1.543432        -0.037616
 C        -0.809470        -0.581362        -0.335171
 C        -1.679436         0.223893        -0.043986
 C        -2.850879         1.141159         0.237001
 O        -2.465656         2.499024         0.071005
 C        -3.612748         0.838686         1.447166
 C        -4.232165        -0.562658         1.281505
 C        -4.026751        -1.471400         2.463056
 O        -4.802766        -0.874819         0.339170
 H         1.180651        -1.002424         0.384811
 H        -0.115196        -2.201041         0.709308
 H         0.551921        -2.106222        -0.911191
 H        -3.610586         1.038765        -0.628609
 H        -2.194785         2.761719         1.033884
 H        -2.891190         0.688163         2.274430
 H        -4.332478         1.598684         1.633297
 H        -2.905976        -1.698337         2.475872
 H        -4.296282        -1.076774         3.438160
 H        -4.635781        -2.335359         2.372796
