19
Iteration:  3120
 C         0.735136        -1.071346        -0.596385
 C        -0.526050        -0.370251        -0.589631
 C        -1.542460         0.196473        -0.201626
 C        -2.661724         1.066538         0.173635
 O        -2.166672         2.339850         0.359260
 C        -3.584606         0.577438         1.463921
 C        -4.541730        -0.595200         1.390704
 C        -5.219039        -1.081025         2.828883
 O        -4.672220        -1.366169         0.514316
 H         0.843370        -1.696632         0.311019
 H         1.020645        -1.661701        -1.493120
 H         1.521817        -0.261468        -0.407981
 H        -3.411355         1.209261        -0.699910
 H        -1.176275         2.196775         0.616509
 H        -3.013449         0.180237         2.328893
 H        -4.101294         1.535803         1.722122
 H        -4.856900        -0.624232         3.742613
 H        -6.267761        -0.817747         2.934765
 H        -5.308639        -2.143168         2.836063
