19
Iteration:   228
 C         1.497201        -0.292625         0.058974
 C         0.072007         0.049444        -0.008411
 C        -1.147472         0.099295         0.018381
 C        -2.574003         0.171863        -0.000996
 O        -3.008541         1.541477        -0.047212
 C        -3.196488        -0.261964         1.414625
 C        -4.734453        -0.382058         1.374709
 C        -5.313737        -1.739420         1.737788
 O        -5.486033         0.527087         1.049861
 H         1.939161         0.104997         1.030830
 H         1.667133        -1.402126         0.031062
 H         2.072146         0.255728        -0.723179
 H        -3.071187        -0.436113        -0.811048
 H        -2.365000         2.056811        -0.685600
 H        -2.794657        -1.314846         1.582469
 H        -2.909083         0.425733         2.223445
 H        -4.646072        -2.086620         2.630846
 H        -6.360610        -1.622838         2.052048
 H        -5.159686        -2.596424         1.014956
