19
Iteration:  3920charge 0 multiplicity 1
 C         0.517399        -1.298705         0.428864
 C        -0.575977        -0.521736        -0.210167
 C        -1.566866         0.174668        -0.207358
 C        -2.730129         0.972836        -0.121600
 O        -2.345627         2.363372         0.091514
 C        -3.678520         0.740617         1.176050
 C        -4.438102        -0.568951         1.321867
 C        -3.644882        -1.854608         1.871405
 O        -5.572519        -0.428238         1.088260
 H         1.274171        -1.803653        -0.223826
 H         0.980554        -0.551965         1.071470
 H        -0.066527        -1.919683         1.056753
 H        -3.470331         0.835185        -1.041759
 H        -2.905595         2.883673        -0.435357
 H        -3.021880         0.927777         2.024787
 H        -4.466724         1.508699         0.997251
 H        -3.365708        -2.552871         1.158217
 H        -2.794825        -1.500373         2.441334
 H        -4.359672        -2.319572         2.489295
