19
Iteration:  2440charge 0 multiplicity 1
 C         0.435661        -1.344016         0.160768
 C        -0.717086        -0.550349        -0.027591
 C        -1.647683         0.265600         0.069023
 C        -2.768603         1.172337         0.132592
 O        -2.447297         2.604000         0.193406
 C        -3.669264         0.742014         1.368231
 C        -4.325113        -0.670291         1.181016
 C        -3.821594        -1.706007         2.063533
 O        -5.238577        -0.833321         0.411553
 H         1.058201        -1.122463         1.057524
 H         0.167912        -2.410283         0.119129
 H         1.108648        -1.184634        -0.705536
 H        -3.341452         0.979562        -0.807481
 H        -1.498233         2.642653         0.405125
 H        -3.046169         0.691350         2.264323
 H        -4.493598         1.511583         1.432865
 H        -3.480133        -1.581557         3.082281
 H        -4.639796        -2.437354         2.076386
 H        -2.992879        -2.130940         1.533489
