19
Iteration:  4347
 C         0.718261        -1.346354        -0.076141
 C        -0.459855        -0.527128         0.187065
 C        -1.419108         0.229427         0.321624
 C        -2.684185         0.996371         0.078838
 O        -2.387392         2.440836        -0.106672
 C        -3.758295         0.841686         1.072560
 C        -4.509984        -0.538488         1.226828
 C        -3.935230        -1.857697         1.887708
 O        -5.664535        -0.565392         1.083934
 H         1.646113        -0.701118        -0.433427
 H         1.100866        -1.882830         0.833912
 H         0.524610        -2.047091        -0.885075
 H        -2.920987         0.676159        -1.015921
 H        -1.466329         2.624977         0.050551
 H        -3.570375         1.244152         2.087965
 H        -4.616807         1.341087         0.557781
 H        -3.117351        -2.383067         1.320563
 H        -3.689935        -1.721144         2.992327
 H        -4.781196        -2.527879         2.007889
