19
Iteration:    28charge 0 multiplicity 1
 C         1.436444         0.175205         0.018529
 C        -0.010220         0.097172         0.154367
 C        -1.150721        -0.243189         0.018017
 C        -2.587435        -0.293042         0.050133
 O        -3.208637         0.931839        -0.528713
 C        -3.099086        -0.257693         1.481984
 C        -4.607995        -0.158762         1.498796
 C        -5.462981        -1.374752         0.943954
 O        -5.104175         0.787283         2.085418
 H         1.801085         0.378749         1.046234
 H         1.975233        -0.642913        -0.503616
 H         1.686507         1.089110        -0.575745
 H        -2.904599        -1.227037        -0.531042
 H        -3.295725         0.962568        -1.506635
 H        -2.788526        -1.050199         2.187882
 H        -2.616512         0.644549         1.919486
 H        -5.258227        -2.357984         1.417920
 H        -6.488399        -1.216155         1.346470
 H        -5.610392        -1.229211        -0.134391
