19
Iteration:  4076charge 0 multiplicity 1
 C         0.747998        -1.334253         0.040336
 C        -0.250878        -0.336017         0.322472
 C        -1.319698         0.254140         0.426991
 C        -2.580795         0.822083        -0.010983
 O        -2.583919         2.184459        -0.390209
 C        -3.687252         0.761651         1.401345
 C        -4.599001        -0.437608         1.326199
 C        -3.879369        -1.782374         1.532724
 O        -5.747265        -0.369533         1.128820
 H         1.111190        -1.202933        -0.997767
 H         1.609793        -1.360437         0.728747
 H         0.239637        -2.284577         0.141286
 H        -3.211051         0.073307        -0.613314
 H        -3.537799         2.551817        -0.287000
 H        -3.056650         0.775734         2.305879
 H        -4.266794         1.675264         1.285982
 H        -3.139810        -1.911626         0.814480
 H        -3.319670        -1.904857         2.438861
 H        -4.600071        -2.612899         1.428971
