19
Iteration:   186
 C         1.541331        -0.066797         0.073696
 C         0.074269        -0.130853         0.052723
 C        -1.135043         0.033468         0.062447
 C        -2.618049         0.208779        -0.004072
 O        -2.961876         1.526716        -0.296704
 C        -3.212762        -0.424292         1.333834
 C        -4.718977        -0.421064         1.392865
 C        -5.454247        -1.736028         1.689176
 O        -5.327101         0.654190         1.305016
 H         1.948285         0.270320         1.026260
 H         1.973720        -1.046683        -0.147942
 H         1.899961         0.533815        -0.768454
 H        -2.852254        -0.498038        -0.881997
 H        -3.890122         1.549364        -0.152549
 H        -2.818558        -1.418843         1.476022
 H        -2.733164         0.225180         2.117070
 H        -5.316877        -1.718131         2.795162
 H        -6.490406        -1.450031         1.505248
 H        -5.104179        -2.685250         1.220416
