19
Iteration:  1430
 C         0.849273        -0.896810         0.018253
 C        -0.398848        -0.208773         0.015073
 C        -1.445774         0.454417         0.051860
 C        -2.790416         0.979706         0.238098
 O        -2.724776         2.486153         0.525962
 C        -3.438886         0.270448         1.350423
 C        -4.358028        -0.856871         1.101584
 C        -5.150322        -1.351737         2.259117
 O        -4.586908        -1.208662        -0.073374
 H         1.440803        -0.578765        -0.861665
 H         1.540902        -0.633006         0.891930
 H         0.752667        -2.059425        -0.050507
 H        -3.406329         0.920183        -0.681547
 H        -1.823806         2.607012         0.871289
 H        -2.672289         0.095272         2.137530
 H        -4.056395         1.082451         1.853346
 H        -4.642347        -1.660300         3.197734
 H        -5.835496        -0.567658         2.651273
 H        -5.781442        -2.152023         1.832592
