19
Iteration:  3135charge 0 multiplicity 1
 C         0.754926        -0.986106        -0.577444
 C        -0.644850        -0.533294        -0.505628
 C        -1.549461         0.247390        -0.250444
 C        -2.702539         1.051693         0.103094
 O        -2.098397         2.443850         0.479362
 C        -3.530377         0.567785         1.349820
 C        -4.640446        -0.635512         1.450310
 C        -5.222403        -0.987473         2.812666
 O        -4.670506        -1.483548         0.504205
 H         0.908584        -1.780863         0.223859
 H         0.942811        -1.597269        -1.488316
 H         1.497673        -0.200256        -0.485854
 H        -3.270297         1.165790        -0.748569
 H        -1.156351         2.311270         0.500529
 H        -2.726433         0.318721         1.994625
 H        -3.950149         1.425699         1.932420
 H        -4.420666        -0.723343         3.509631
 H        -6.283939        -0.699299         2.977354
 H        -5.082255        -2.113037         2.767549
