19
Iteration:  1353charge 0 multiplicity 1
 C         1.034169        -0.906044        -0.018263
 C        -0.235468        -0.034927         0.032900
 C        -1.346906         0.464111         0.134232
 C        -2.716902         0.926719         0.217574
 O        -2.821720         2.368881         0.414465
 C        -3.314881         0.152908         1.501802
 C        -4.361335        -0.808560         1.060133
 C        -5.391437        -1.292261         2.331202
 O        -4.679412        -1.133916        -0.096524
 H         1.557337        -0.646188        -0.929790
 H         1.829194        -0.733837         0.733681
 H         0.679360        -1.951686        -0.246294
 H        -3.319960         0.562887        -0.576636
 H        -3.724246         2.800620         0.139892
 H        -2.544775        -0.531353         1.910610
 H        -3.598563         0.778099         2.397180
 H        -5.653990        -2.279490         2.719157
 H        -5.079643        -0.674141         3.190624
 H        -6.390573        -0.925587         1.957690
