19
Iteration:  2340
 C         0.617474        -1.120479         0.262638
 C        -0.712813        -0.606363         0.055637
 C        -1.543940         0.267545         0.032832
 C        -2.763488         1.055860         0.139390
 O        -2.588677         2.440123         0.079194
 C        -3.457851         0.690822         1.437196
 C        -4.409996        -0.586535         1.196966
 C        -3.957466        -1.923601         1.876064
 O        -5.358243        -0.553144         0.478240
 H         1.258757        -0.525350         1.017324
 H         0.640613        -2.191592         0.506359
 H         1.122437        -1.069189        -0.717544
 H        -3.395248         0.740606        -0.714398
 H        -1.675391         2.675311         0.527955
 H        -2.795208         0.527817         2.339166
 H        -4.117516         1.604119         1.644755
 H        -3.310328        -2.438641         1.143255
 H        -3.386426        -1.940279         2.812346
 H        -4.758754        -2.697585         2.019885
