19
Iteration:  2144charge 0 multiplicity 1
 C         0.697138        -1.107708         0.341820
 C        -0.628633        -0.563067         0.134418
 C        -1.642392         0.122804        -0.055976
 C        -2.719092         1.168140         0.038333
 O        -2.275455         2.437886         0.460322
 C        -3.883625         0.789156         1.117390
 C        -4.492604        -0.566293         1.089463
 C        -3.715828        -1.796533         1.675839
 O        -5.563921        -0.799025         0.654434
 H         1.451956        -0.310627         0.733128
 H         0.813046        -2.010644         0.984445
 H         0.991561        -1.510040        -0.650309
 H        -3.337909         1.125011        -0.994496
 H        -1.290537         2.177299         0.700355
 H        -3.288883         0.834281         2.059161
 H        -4.657732         1.565491         1.083059
 H        -2.927785        -1.586123         2.454696
 H        -4.473711        -2.311313         2.337914
 H        -3.533846        -2.558055         0.882474
