19
Iteration:   741charge 0 multiplicity 1
 C         1.298053        -0.328382        -0.404676
 C        -0.023468         0.098922        -0.140360
 C        -1.179694         0.265865         0.197543
 C        -2.600003         0.557600         0.418783
 O        -2.728081         1.857176         0.874904
 C        -3.241150        -0.425483         1.422342
 C        -4.671892        -0.752053         1.060881
 C        -5.741746        -0.131687         2.004970
 O        -4.968258        -1.375850         0.047852
 H         2.085320         0.418817        -0.441143
 H         1.388892        -1.011866         0.458477
 H         1.299701        -0.918849        -1.345524
 H        -3.131334         0.423460        -0.565029
 H        -3.364149         1.859014         1.535436
 H        -2.643844        -1.365406         1.232526
 H        -2.966239        -0.178229         2.411518
 H        -5.282735         0.741684         2.501297
 H        -6.731567         0.108566         1.567002
 H        -5.861110        -1.043401         2.683526
