19
Iteration:  2916
 C         0.710542        -1.089121        -0.384411
 C        -0.657672        -0.608741        -0.236031
 C        -1.682974         0.086742        -0.257152
 C        -2.754681         1.025372         0.142518
 O        -2.337861         2.427851         0.327701
 C        -3.355886         0.522530         1.472188
 C        -4.415710        -0.507984         1.395073
 C        -4.823458        -1.215647         2.640684
 O        -4.889517        -1.050474         0.316467
 H         1.285638        -1.499459         0.409923
 H         0.808620        -1.543569        -1.347141
 H         1.158386        -0.165233        -0.666576
 H        -3.614998         1.025794        -0.549064
 H        -1.322430         2.400982         0.502989
 H        -2.680314         0.134175         2.265912
 H        -3.788414         1.323580         2.042246
 H        -5.064152        -0.522044         3.504966
 H        -5.695231        -1.857900         2.637052
 H        -3.967685        -1.716236         3.117189
