19
Iteration:  2562charge 0 multiplicity 1
 C         0.313170        -1.506354        -0.228832
 C        -0.842252        -0.704877         0.103749
 C        -1.611594         0.276445         0.151639
 C        -2.733556         1.200288         0.213876
 O        -2.397083         2.639441         0.385421
 C        -3.886985         0.909177         1.198842
 C        -4.291352        -0.568131         1.145921
 C        -3.785377        -1.527608         2.348766
 O        -4.987045        -1.082203         0.225407
 H         0.880708        -1.538043         0.707955
 H        -0.018652        -2.550516        -0.412534
 H         0.977449        -1.212052        -1.064651
 H        -3.177716         1.241561        -0.816654
 H        -1.712127         2.817175         1.139014
 H        -3.458374         1.130977         2.181682
 H        -4.715109         1.587687         0.795942
 H        -3.918118        -2.578026         2.162846
 H        -2.705608        -1.274899         2.490394
 H        -4.235707        -1.299518         3.343116
