19
Iteration:   624charge 0 multiplicity 1
 C         1.212403        -0.462717        -0.652471
 C        -0.084682        -0.047872        -0.114361
 C        -1.216429         0.271075         0.242323
 C        -2.608425         0.639050         0.522908
 O        -2.625423         2.036175         0.918060
 C        -3.332019        -0.212293         1.627588
 C        -4.721055        -0.795494         1.069181
 C        -5.916467        -0.471401         2.006817
 O        -4.684694        -1.314413        -0.047596
 H         1.900239         0.354110        -0.477703
 H         1.700083        -1.368315        -0.276942
 H         1.202349        -0.464974        -1.764750
 H        -3.240296         0.367243        -0.361760
 H        -1.687882         2.301397         0.788474
 H        -2.692552        -0.978416         2.055299
 H        -3.665622         0.379284         2.509046
 H        -6.303896         0.430547         1.628527
 H        -6.765938        -1.145445         2.003919
 H        -5.745452        -0.315551         3.065939
