19
Iteration:  2557charge 0 multiplicity 1
 C         0.330176        -1.551593        -0.217904
 C        -0.835759        -0.675583         0.057406
 C        -1.619700         0.278765         0.220918
 C        -2.740516         1.272056         0.223798
 O        -2.374529         2.615050         0.354942
 C        -3.933047         0.933627         1.188897
 C        -4.322077        -0.612233         1.121285
 C        -3.744315        -1.557705         2.363178
 O        -4.973482        -1.056839         0.251640
 H         0.968140        -1.481803         0.681118
 H         0.081419        -2.578658        -0.448123
 H         0.897419        -1.089579        -1.028197
 H        -3.204750         1.126734        -0.744474
 H        -1.770579         2.676953         1.054378
 H        -3.657696         1.111507         2.244760
 H        -4.631848         1.657249         0.833461
 H        -4.073744        -2.624855         2.152108
 H        -2.623358        -1.458439         2.349902
 H        -4.316350        -1.130227         3.218162
