19
Iteration:    23charge 0 multiplicity 1
 C         1.473280         0.188708         0.017945
 C         0.009092         0.101531         0.144397
 C        -1.174932        -0.251072         0.020523
 C        -2.613486        -0.301360         0.087636
 O        -3.261429         0.891223        -0.553499
 C        -3.111389        -0.209002         1.505191
 C        -4.618970        -0.143157         1.468256
 C        -5.470234        -1.318116         0.925896
 O        -5.081381         0.732984         2.119832
 H         1.933854         0.308731         0.999414
 H         1.925328        -0.682423        -0.461543
 H         1.751059         1.085595        -0.551888
 H        -2.923997        -1.176992        -0.468535
 H        -2.855868         0.994027        -1.501573
 H        -2.765828        -1.053583         2.113989
 H        -2.676064         0.726198         1.893691
 H        -5.091683        -2.293284         1.246575
 H        -6.438279        -1.130712         1.370655
 H        -5.588243        -1.380275        -0.175472
