19
Iteration:  3738charge 0 multiplicity 1
 C         0.462914        -1.379986         0.115925
 C        -0.763785        -0.639821        -0.150359
 C        -1.660811         0.165929        -0.126770
 C        -2.766299         1.106148        -0.062155
 O        -2.235651         2.555002         0.140131
 C        -3.681447         0.847806         1.188738
 C        -4.318868        -0.573311         1.309730
 C        -3.836282        -1.681716         2.379991
 O        -5.363119        -0.814749         0.722900
 H         0.542662        -2.126890        -0.716175
 H         1.363117        -0.744059         0.050457
 H         0.503559        -1.860655         1.101014
 H        -3.402589         0.953494        -1.078723
 H        -1.989552         2.888831        -0.756364
 H        -3.116843         1.123273         2.099276
 H        -4.608910         1.414584         1.124674
 H        -2.695217        -1.662419         2.472629
 H        -4.161608        -1.141137         3.352783
 H        -4.368243        -2.638650         2.197168
