19
Iteration:  1951
 C         0.477760        -1.409458         0.282358
 C        -0.634939        -0.403649         0.149952
 C        -1.665453         0.306795         0.094686
 C        -2.891592         1.164087         0.145447
 O        -2.449993         2.523259         0.522560
 C        -3.876874         0.855221         1.349451
 C        -4.328321        -0.620688         1.070779
 C        -3.817323        -1.803209         1.892373
 O        -5.022733        -0.923274         0.116758
 H         1.457704        -0.939010         0.075461
 H         0.494717        -1.926076         1.279289
 H         0.531048        -2.171974        -0.564590
 H        -3.342510         1.142417        -0.893295
 H        -1.855340         3.028033        -0.072949
 H        -3.175385         0.922096         2.225938
 H        -4.674902         1.681158         1.421063
 H        -4.676335        -2.401953         2.284005
 H        -3.511806        -2.367565         1.037645
 H        -3.130059        -1.442359         2.673584
