19
Iteration:  3223
 C         0.650758        -1.243346        -0.691120
 C        -0.575548        -0.439710        -0.487765
 C        -1.565627         0.224078        -0.151881
 C        -2.694341         1.017840         0.244904
 O        -2.368046         2.452353         0.378668
 C        -3.365010         0.623444         1.606904
 C        -4.440907        -0.612485         1.512473
 C        -5.322425        -1.053192         2.597518
 O        -4.434404        -1.325549         0.499918
 H         0.653916        -1.953264         0.185220
 H         0.889486        -1.748382        -1.656000
 H         1.488014        -0.552452        -0.513744
 H        -3.384453         1.018205        -0.615877
 H        -1.981361         2.700101        -0.435694
 H        -2.618315         0.512030         2.368545
 H        -3.987055         1.533319         1.801856
 H        -4.904699        -1.346791         3.563657
 H        -5.996056        -0.251290         2.913301
 H        -5.813955        -1.970207         2.275338
