19
Iteration:  4761charge 0 multiplicity 1
 C         0.515441        -1.091058        -0.387551
 C        -0.707773        -0.258491        -0.707087
 C        -1.818780         0.088681        -0.393678
 C        -2.838350         0.969456         0.249362
 O        -2.223168         2.352926         0.334688
 C        -3.210378         0.474739         1.571939
 C        -4.349833        -0.699413         1.503386
 C        -5.280010        -0.804876         2.733762
 O        -4.354659        -1.359068         0.417809
 H         1.134315        -0.592090         0.461428
 H         0.129352        -2.067309        -0.061162
 H         1.179548        -1.245342        -1.237067
 H        -3.697539         1.077295        -0.348093
 H        -1.334472         2.250084         0.088351
 H        -2.307680         0.038741         2.046258
 H        -3.445195         1.286464         2.228477
 H        -4.639289        -1.007813         3.601575
 H        -5.792246         0.092189         3.142613
 H        -5.959408        -1.715928         2.691384
