19
Iteration:  2806charge 0 multiplicity 1
 C         0.503275        -1.349375        -0.452453
 C        -0.668776        -0.603796         0.080186
 C        -1.564421         0.178537         0.024122
 C        -2.726787         1.028869         0.244592
 O        -2.490944         2.461140         0.279545
 C        -3.519534         0.647587         1.376088
 C        -4.280695        -0.653860         1.213590
 C        -4.334572        -1.286497         2.527684
 O        -5.019751        -0.852878         0.284179
 H         1.140589        -1.896045         0.233588
 H         0.113735        -2.099810        -1.147930
 H         1.113038        -0.624316        -1.027949
 H        -3.273570         0.912257        -0.734924
 H        -1.733075         2.682146         0.754967
 H        -2.857098         0.641754         2.296672
 H        -4.382376         1.275201         1.482589
 H        -4.971746        -0.513774         3.064787
 H        -4.799975        -2.253735         2.406923
 H        -3.360295        -1.209375         2.994635
