19
Iteration:  4359charge 0 multiplicity 1
 C         0.602031        -1.326813        -0.099072
 C        -0.529333        -0.508293         0.311179
 C        -1.461990         0.248377         0.335466
 C        -2.569897         1.037249         0.008708
 O        -2.417519         2.419992        -0.080053
 C        -3.803149         0.771705         0.999535
 C        -4.359164        -0.616784         1.274812
 C        -3.904580        -1.871655         1.918124
 O        -5.634129        -0.498023         1.030780
 H         1.493951        -0.694019        -0.444749
 H         0.883813        -2.020486         0.740704
 H         0.281048        -2.023886        -0.894949
 H        -3.126712         0.598171        -0.963566
 H        -1.404347         2.595770         0.036158
 H        -3.439135         1.152563         1.952321
 H        -4.628006         1.486344         0.765439
 H        -3.034477        -2.323179         1.373695
 H        -3.431840        -1.599430         2.930942
 H        -4.755997        -2.524097         1.842759
