19
Iteration:  1328
 C         1.106358        -0.774101        -0.103381
 C        -0.253755        -0.197648         0.119823
 C        -1.322797         0.439818         0.147710
 C        -2.620989         0.822838         0.313340
 O        -2.870909         2.304079         0.314255
 C        -3.300372         0.139913         1.511320
 C        -4.437770        -0.722991         1.108971
 C        -5.421662        -1.225496         2.201642
 O        -4.714506        -1.045052        -0.008208
 H         1.536329        -0.293383        -1.062086
 H         1.920722        -0.464343         0.623140
 H         1.137256        -1.888112        -0.349328
 H        -3.284009         0.418537        -0.506568
 H        -3.861762         2.355042         0.356574
 H        -2.627757        -0.409310         2.212202
 H        -3.816612         0.823586         2.223455
 H        -5.605138        -2.276671         2.012848
 H        -4.850733        -1.232381         3.146496
 H        -6.430714        -0.781857         2.353377
