19
Iteration:  3123charge 0 multiplicity 1
 C         0.743452        -1.056400        -0.605880
 C        -0.559651        -0.399579        -0.568075
 C        -1.526876         0.208298        -0.213524
 C        -2.659515         1.082418         0.149544
 O        -2.147470         2.348637         0.377574
 C        -3.581900         0.562806         1.452419
 C        -4.570256        -0.587695         1.367000
 C        -5.227024        -1.081678         2.836288
 O        -4.667451        -1.383658         0.530702
 H         0.750950        -1.640240         0.348504
 H         1.068691        -1.648031        -1.494301
 H         1.498056        -0.262689        -0.401323
 H        -3.335723         1.158739        -0.653097
 H        -1.214828         2.241761         0.584365
 H        -2.969301         0.200715         2.233340
 H        -4.110826         1.515921         1.768985
 H        -4.808890        -0.608577         3.740021
 H        -6.268746        -0.766983         3.017668
 H        -5.247625        -2.201381         2.812394
