19
Iteration:   432
 C         1.156575        -0.714671        -0.170653
 C        -0.159469        -0.085411        -0.031357
 C        -1.316119         0.299537         0.018461
 C        -2.650810         0.683904         0.314405
 O        -2.639894         2.079579         0.519903
 C        -3.269569        -0.011437         1.467753
 C        -4.662267        -0.580813         1.091813
 C        -5.225772        -1.364919         2.276291
 O        -5.154202        -0.559439        -0.006727
 H         1.948410        -0.229074         0.419096
 H         1.132890        -1.748806         0.130482
 H         1.614811        -0.555761        -1.115847
 H        -3.406991         0.557985        -0.490586
 H        -3.441339         2.326491         0.892465
 H        -2.614009        -0.920279         1.698687
 H        -3.309765         0.425930         2.445910
 H        -5.439837        -0.748265         3.196066
 H        -6.136974        -1.939166         2.108989
 H        -4.389451        -2.010483         2.401633
