19
Iteration:  3932charge 0 multiplicity 1
 C         0.459886        -1.195624         0.491229
 C        -0.545768        -0.529726        -0.296601
 C        -1.571616         0.118134        -0.279456
 C        -2.683312         1.077430        -0.088170
 O        -2.263364         2.382807         0.058683
 C        -3.613663         0.729186         1.144761
 C        -4.364796        -0.560262         1.340052
 C        -3.824989        -1.857181         1.853539
 O        -5.639186        -0.562297         1.176050
 H         1.280070        -1.725597        -0.114679
 H         1.003156        -0.515727         1.141187
 H         0.140724        -1.996615         1.091156
 H        -3.339784         0.993381        -1.064507
 H        -2.779164         2.951260        -0.567263
 H        -3.092606         1.005472         2.071237
 H        -4.464440         1.435293         1.154563
 H        -3.444956        -2.466012         1.127214
 H        -2.941901        -1.630978         2.452209
 H        -4.481299        -2.366258         2.491302
