19
Iteration:  4554charge 0 multiplicity 1
 C         0.266471        -1.505795         0.031823
 C        -0.793871        -0.558736        -0.355644
 C        -1.725336         0.197341        -0.124043
 C        -2.799974         1.078602         0.161216
 O        -2.459688         2.550654         0.099511
 C        -3.574799         0.843121         1.492838
 C        -4.252142        -0.518923         1.360161
 C        -3.977196        -1.518616         2.458310
 O        -4.856550        -0.897464         0.296222
 H         1.206194        -1.098377         0.450883
 H        -0.181932        -2.138110         0.783605
 H         0.536291        -2.160565        -0.756755
 H        -3.528457         0.981991        -0.735207
 H        -2.066086         2.836851         0.997432
 H        -2.913386         0.874421         2.411130
 H        -4.333387         1.687852         1.561162
 H        -2.966376        -1.908977         2.447649
 H        -4.159175        -1.098552         3.451790
 H        -4.529381        -2.437096         2.248918
