19
Iteration:  2994
 C         0.618245        -1.306080        -0.727514
 C        -0.220848        -0.179678        -0.331366
 C        -1.376426         0.198461        -0.023136
 C        -2.636490         0.872223         0.264477
 O        -2.660868         2.301496         0.209274
 C        -3.425267         0.526453         1.664534
 C        -4.508685        -0.546021         1.488183
 C        -5.094344        -1.050980         2.686387
 O        -4.654848        -1.046189         0.246967
 H         0.596794        -1.824340         0.233025
 H         0.110242        -1.993455        -1.393211
 H         1.639609        -1.137027        -0.807872
 H        -3.430316         0.552495        -0.463452
 H        -1.953699         2.592452         0.835728
 H        -2.848163         0.185725         2.606616
 H        -3.888457         1.484178         1.758796
 H        -4.725320        -0.605225         3.627059
 H        -6.178759        -1.215118         2.628062
 H        -4.804410        -2.111377         2.912297
