19
Iteration:  1738charge 0 multiplicity 1
 C         0.417283        -1.328636        -0.025330
 C        -0.627806        -0.271082         0.087523
 C        -1.650907         0.335841         0.223670
 C        -2.817652         1.203064         0.365186
 O        -2.522604         2.630694         0.453603
 C        -3.769843         0.698453         1.409161
 C        -4.268724        -0.674927         1.053209
 C        -4.428547        -1.775288         2.057111
 O        -4.492831        -1.054512        -0.054963
 H         1.234786        -1.081870        -0.723798
 H         0.884353        -1.435406         0.954823
 H        -0.013825        -2.303817        -0.233077
 H        -3.409058         1.118891        -0.626428
 H        -1.649031         2.624686         0.847778
 H        -3.484064         0.464696         2.423829
 H        -4.452539         1.516796         1.417498
 H        -3.873448        -2.658495         1.838234
 H        -4.020102        -1.512413         3.047880
 H        -5.479579        -2.002120         2.129525
