19
Iteration:   674charge 0 multiplicity 1
 C         1.235019        -0.317029        -0.590003
 C        -0.115934        -0.168970        -0.134345
 C        -1.195820         0.221634         0.243187
 C        -2.572393         0.620174         0.462077
 O        -2.632327         2.039638         0.901349
 C        -3.260144        -0.298727         1.512712
 C        -4.712238        -0.672505         1.093948
 C        -5.882361        -0.359603         1.868292
 O        -4.774114        -1.378998         0.104256
 H         1.968471         0.520763        -0.424652
 H         1.650577        -1.190382        -0.035607
 H         1.317828        -0.611835        -1.644925
 H        -3.086648         0.561338        -0.526681
 H        -2.837314         2.072499         1.900874
 H        -2.589172        -1.195190         1.687446
 H        -3.340767         0.150903         2.494676
 H        -6.260612         0.702203         2.107941
 H        -6.759527        -0.914649         1.498673
 H        -5.772781        -0.812307         2.899928
