19
Iteration:  4233
 C         0.791187        -0.723221         0.237785
 C        -0.694196        -0.646344         0.177629
 C        -1.675618         0.016708        -0.082255
 C        -2.747855         0.915361         0.107776
 O        -2.095049         2.184220        -0.407251
 C        -3.464340         0.654935         1.456335
 C        -4.529306        -0.503041         1.279253
 C        -4.149430        -2.014492         1.639454
 O        -5.703076        -0.331839         1.176221
 H         1.196787         0.079543        -0.408548
 H         1.193769        -0.511141         1.239004
 H         1.306913        -1.634153        -0.220499
 H        -3.542053         0.798233        -0.611486
 H        -1.291518         2.361428         0.175207
 H        -2.535381         0.492458         2.111589
 H        -4.069370         1.564924         1.718762
 H        -3.186499        -2.389821         1.292604
 H        -3.935515        -1.962275         2.677760
 H        -5.038617        -2.643137         1.448373
