19
Iteration:  2521
 C         0.211669        -1.428543        -0.160733
 C        -0.708342        -0.355745         0.074980
 C        -1.720079         0.182840         0.341581
 C        -2.745804         1.153740         0.290358
 O        -2.262197         2.436673         0.223146
 C        -3.913295         0.941789         1.216313
 C        -4.366002        -0.587675         1.209081
 C        -3.728309        -1.543093         2.190998
 O        -5.002179        -1.044447         0.251637
 H         0.960511        -1.558543         0.666395
 H        -0.239817        -2.462406        -0.375591
 H         0.850437        -1.233432        -1.105474
 H        -3.235426         1.026684        -0.756400
 H        -1.756329         2.522127         1.010998
 H        -3.724239         1.071207         2.329585
 H        -4.697898         1.647861         0.927470
 H        -4.504100        -2.268406         2.436905
 H        -2.876820        -2.034985         1.723111
 H        -3.184948        -1.155067         3.105379
