19
Iteration:  3687charge 0 multiplicity 1
 C         0.358860        -1.151114         0.109152
 C        -0.841900        -0.412913        -0.243125
 C        -2.026030        -0.043196        -0.212992
 C        -2.907598         1.079841        -0.051307
 O        -2.121848         2.185553         0.209877
 C        -3.570610         0.768233         1.235581
 C        -4.288242        -0.508633         1.310578
 C        -3.830306        -1.445862         2.469866
 O        -5.142691        -0.794384         0.510709
 H         0.626577        -2.068864        -0.401591
 H         1.295900        -0.548687         0.043854
 H         0.290522        -1.313534         1.257865
 H        -3.543723         1.170703        -0.836462
 H        -1.299862         1.818370         0.723852
 H        -2.711544         0.709224         1.981796
 H        -4.229314         1.582629         1.651169
 H        -2.751107        -1.337009         2.687817
 H        -4.384859        -1.095882         3.297073
 H        -4.082062        -2.428112         2.147447
