19
Iteration:  3725
 C         0.482444        -1.331338         0.152526
 C        -0.763660        -0.587931        -0.141270
 C        -1.736006         0.107451        -0.380125
 C        -2.764312         1.186521         0.019973
 O        -2.182051         2.473872         0.129391
 C        -3.707773         0.792389         1.270773
 C        -4.370941        -0.637654         1.351855
 C        -3.846188        -1.554059         2.401919
 O        -5.325374        -0.830744         0.675872
 H         0.634256        -2.216251        -0.533200
 H         1.326418        -0.643835         0.056646
 H         0.404791        -1.779748         1.099900
 H        -3.566056         1.383774        -0.831942
 H        -1.585503         2.534082        -0.630247
 H        -3.179404         1.022731         2.171937
 H        -4.490631         1.535682         1.158903
 H        -2.765998        -1.647544         2.463042
 H        -4.283047        -1.415993         3.429603
 H        -4.188036        -2.577849         2.134169
