19
Iteration:  2580charge 0 multiplicity 1
 C         0.262529        -1.564757        -0.153270
 C        -0.811762        -0.600393         0.136510
 C        -1.643285         0.258977         0.020268
 C        -2.748598         1.251845         0.088519
 O        -2.440619         2.608329         0.461478
 C        -3.750942         0.748559         1.200596
 C        -4.288909        -0.622799         1.215086
 C        -3.833756        -1.383628         2.324172
 O        -4.931107        -1.050554         0.249998
 H         1.066722        -1.684221         0.567190
 H        -0.108421        -2.479476        -0.539550
 H         0.659084        -1.038433        -0.989057
 H        -3.242250         1.224002        -0.836685
 H        -1.731860         2.466690         1.207286
 H        -3.355278         0.964812         2.180767
 H        -4.588144         1.432673         1.019449
 H        -3.626541        -2.390389         1.885483
 H        -2.893550        -0.856457         2.694723
 H        -4.736623        -1.429001         2.956267
