19
Iteration:  4938charge 0 multiplicity 1
 C         0.610629        -0.919329        -1.145314
 C        -0.562644        -0.515772        -0.306219
 C        -1.513605         0.013266         0.264137
 C        -2.736583         0.801054         0.347652
 O        -2.351846         2.201885         0.280381
 C        -3.525490         0.608601         1.564612
 C        -4.341826        -0.609938         1.566054
 C        -5.438085        -0.613464         2.582566
 O        -4.218887        -1.376243         0.568260
 H         1.545412        -0.982379        -0.480651
 H         0.690093        -1.956287        -1.559771
 H         0.786664        -0.207050        -2.020726
 H        -3.467013         0.610610        -0.458445
 H        -1.990211         2.253921        -0.583232
 H        -2.835262         0.555290         2.398545
 H        -4.176754         1.477685         1.836066
 H        -5.317874        -0.741334         3.629660
 H        -6.136593         0.210602         2.305031
 H        -6.113333        -1.452019         2.406330
