19
Iteration:  1696
 C         0.399502        -1.237360         0.129065
 C        -0.867365        -0.506159         0.077686
 C        -1.677360         0.418581         0.081343
 C        -2.823835         1.221658         0.311844
 O        -2.586483         2.587977         0.449680
 C        -3.548899         0.570577         1.473873
 C        -4.189365        -0.744424         1.051737
 C        -4.505363        -1.781102         2.102533
 O        -4.388064        -0.900813        -0.128354
 H         0.939927        -0.637131        -0.708678
 H         0.880421        -0.982377         1.088752
 H         0.423158        -2.302908        -0.061224
 H        -3.510790         1.148126        -0.577991
 H        -1.751381         2.865914         0.723078
 H        -2.762920         0.651163         2.261496
 H        -4.402624         1.203062         1.857600
 H        -4.651899        -2.640708         1.514950
 H        -3.822986        -1.870662         2.976191
 H        -5.460174        -1.537967         2.543549
