19
Iteration:  1927
 C         0.437661        -1.223624         0.216304
 C        -0.796683        -0.572439         0.128103
 C        -1.716782         0.200179         0.102897
 C        -2.769268         1.191520         0.204033
 O        -2.380553         2.535646         0.589513
 C        -3.898030         0.763232         1.241381
 C        -4.289235        -0.685265         1.024929
 C        -3.838232        -1.711728         2.018138
 O        -4.997702        -0.903018         0.050586
 H         1.158730        -0.411600        -0.028960
 H         0.672155        -1.598501         1.217644
 H         0.672772        -2.000509        -0.505619
 H        -3.228203         1.227032        -0.841355
 H        -1.528098         2.751495         0.296091
 H        -3.486137         0.940245         2.251330
 H        -4.733235         1.478879         1.068788
 H        -4.682687        -2.008754         2.695028
 H        -3.683370        -2.568773         1.327527
 H        -2.949689        -1.286905         2.560265
