19
Iteration:  4842
 C         0.666219        -1.160310        -0.896860
 C        -0.538910        -0.432529        -0.388727
 C        -1.563416         0.195879        -0.059506
 C        -2.746729         0.999446         0.266215
 O        -2.551024         2.375710         0.398488
 C        -3.277964         0.410950         1.642874
 C        -4.403359        -0.645658         1.436956
 C        -5.300199        -0.560513         2.539282
 O        -4.421353        -1.540562         0.559243
 H         1.521367        -0.949615        -0.297642
 H         0.650890        -2.263123        -0.874622
 H         0.973411        -0.892510        -1.949162
 H        -3.623352         0.858057        -0.453112
 H        -1.625828         2.354275         0.460425
 H        -2.446313         0.114784         2.261521
 H        -3.767883         1.294846         2.240130
 H        -4.619859        -0.319661         3.406709
 H        -5.890845         0.377690         2.152659
 H        -5.901176        -1.467156         2.765364
