19
Iteration:   536charge 0 multiplicity 1
 C         1.127582        -0.565482        -0.503622
 C        -0.160734        -0.109793        -0.107136
 C        -1.286499         0.182031         0.233658
 C        -2.579731         0.697238         0.474626
 O        -2.710778         2.110548         0.738086
 C        -3.268820        -0.060265         1.578580
 C        -4.606298        -0.723212         1.078890
 C        -5.670061        -0.823742         2.102796
 O        -4.818408        -1.057209        -0.081134
 H         1.888845         0.050637        -0.042579
 H         1.303558        -1.605330        -0.148352
 H         1.188783        -0.579675        -1.623897
 H        -3.097019         0.688040        -0.491113
 H        -2.192076         2.317520         1.628048
 H        -2.449109        -0.770084         1.865030
 H        -3.577661         0.658513         2.378806
 H        -5.904552         0.158750         2.425501
 H        -6.455549        -1.452281         1.733505
 H        -5.173522        -1.313730         2.977646
