19
Iteration:   311charge 0 multiplicity 1
 C         1.381313        -0.516544        -0.032241
 C        -0.073006        -0.209254         0.114639
 C        -1.211252         0.235064         0.100001
 C        -2.648862         0.486720         0.127420
 O        -2.876558         1.919905         0.106886
 C        -3.186152        -0.041009         1.385927
 C        -4.693123        -0.535706         1.213577
 C        -5.121328        -1.880029         1.980811
 O        -5.502067         0.185800         0.637061
 H         2.056867        -0.117231         0.734981
 H         1.480590        -1.606544        -0.008831
 H         1.794528        -0.137957        -0.966042
 H        -3.048615        -0.026558        -0.819971
 H        -2.314051         2.358925        -0.629734
 H        -2.549374        -0.851006         1.886802
 H        -3.257688         0.767929         2.140203
 H        -4.697479        -1.827711         3.003820
 H        -6.183560        -1.746035         2.172689
 H        -4.897029        -2.764390         1.422383
