19
Iteration:   361charge 0 multiplicity 1
 C         1.262408        -0.679488        -0.033222
 C        -0.049375        -0.121317        -0.049270
 C        -1.193228         0.281379         0.004062
 C        -2.594918         0.654577         0.240728
 O        -2.744529         2.019805         0.218842
 C        -3.213483        -0.045160         1.424482
 C        -4.714309        -0.568523         1.197594
 C        -5.107805        -1.669077         2.110664
 O        -5.517401        -0.166063         0.379120
 H         1.891388        -0.173719         0.713121
 H         1.273767        -1.770227         0.180447
 H         1.845260        -0.359805        -0.936198
 H        -3.125025         0.282343        -0.637387
 H        -2.994948         2.465034         1.044378
 H        -2.748625        -0.904284         1.753141
 H        -3.250145         0.638292         2.313009
 H        -5.233982        -1.389613         3.134487
 H        -6.101590        -2.015844         1.748703
 H        -4.329548        -2.454737         1.881456
