19
Iteration:  2683charge 0 multiplicity 1
 C         0.172569        -1.528951        -0.029246
 C        -0.939069        -0.576125         0.081040
 C        -1.803756         0.219203        -0.193397
 C        -2.865459         1.183781         0.088878
 O        -2.480575         2.584503         0.363149
 C        -3.462764         0.723159         1.503118
 C        -4.131906        -0.623610         1.233242
 C        -4.025928        -1.529879         2.399998
 O        -4.681719        -0.825965         0.089661
 H         0.766798        -1.634446         0.846974
 H        -0.161352        -2.468721        -0.463096
 H         0.785826        -1.058184        -0.808174
 H        -3.636445         1.144872        -0.712957
 H        -1.538413         2.653097         0.387598
 H        -2.677130         0.630483         2.266594
 H        -4.308620         1.437494         1.679553
 H        -3.119872        -1.265165         3.000098
 H        -4.971083        -1.163827         2.871621
 H        -4.142142        -2.627931         2.183662
