19
Iteration:  3717charge 0 multiplicity 1
 C         0.484307        -1.329549         0.137520
 C        -0.775638        -0.518086        -0.132462
 C        -1.817168         0.117275        -0.456478
 C        -2.808203         1.156336         0.013410
 O        -2.130488         2.397235         0.154233
 C        -3.662971         0.786625         1.302646
 C        -4.378951        -0.565047         1.384789
 C        -3.847170        -1.533265         2.398546
 O        -5.318876        -0.874887         0.619372
 H         0.701609        -2.225261        -0.489409
 H         1.256994        -0.545683         0.188020
 H         0.318847        -1.540216         1.238030
 H        -3.680960         1.099424        -0.755362
 H        -1.361287         2.372325        -0.379714
 H        -3.006469         0.931262         2.206670
 H        -4.485775         1.528449         1.320569
 H        -2.708719        -1.307369         2.519456
 H        -4.296367        -1.321342         3.456168
 H        -4.168735        -2.534626         2.046750
