19
Iteration:  4920charge 0 multiplicity 1
 C         0.595046        -1.003583        -1.142172
 C        -0.435508        -0.388342        -0.402455
 C        -1.360040         0.100435         0.243603
 C        -2.565109         0.824222         0.321378
 O        -2.360127         2.236041         0.246513
 C        -3.532586         0.638831         1.686966
 C        -4.466908        -0.595960         1.538063
 C        -5.611227        -0.740349         2.601333
 O        -4.288967        -1.427380         0.636294
 H         1.546347        -1.142244        -0.703812
 H         0.310645        -2.036497        -1.469518
 H         0.701647        -0.474112        -2.116167
 H        -3.273809         0.506165        -0.489369
 H        -1.895902         2.314337        -0.578287
 H        -2.992263         0.696402         2.633954
 H        -4.243687         1.513983         1.574113
 H        -4.918607        -0.640889         3.483769
 H        -6.300709         0.124569         2.426193
 H        -6.268934        -1.667225         2.488631
