19
Iteration:   667charge 0 multiplicity 1
 C         1.220793        -0.364919        -0.590062
 C        -0.123810        -0.129619        -0.130423
 C        -1.225921         0.185253         0.251428
 C        -2.558529         0.625825         0.502552
 O        -2.606992         2.010954         0.908750
 C        -3.272883        -0.218903         1.549563
 C        -4.629131        -0.688223         1.056438
 C        -5.873443        -0.362073         1.875270
 O        -4.814367        -1.387299         0.085400
 H         1.711775         0.567968        -0.427852
 H         1.739643        -1.164355        -0.076585
 H         1.248416        -0.443497        -1.690166
 H        -3.012035         0.700341        -0.495550
 H        -3.195007         2.084570         1.617704
 H        -2.720684        -1.148331         1.656039
 H        -3.146956         0.221712         2.545085
 H        -6.285066         0.645957         1.912596
 H        -6.666423        -1.041573         1.505745
 H        -5.634739        -0.818887         2.890651
