19
Iteration:  1814
 C         0.587117        -1.230975        -0.122885
 C        -0.679748        -0.528864         0.054206
 C        -1.519376         0.282111         0.365590
 C        -2.674869         1.257213         0.265611
 O        -2.432211         2.675625         0.674441
 C        -3.927251         0.737665         1.162687
 C        -4.397416        -0.736899         0.953063
 C        -4.228972        -1.524379         2.133480
 O        -4.876303        -1.246431        -0.019638
 H         1.298861        -0.645316        -0.674513
 H         1.005594        -1.589111         0.797982
 H         0.356464        -2.189870        -0.558358
 H        -3.097075         1.344092        -0.778068
 H        -1.877681         2.549833         1.538749
 H        -3.664578         0.717183         2.225930
 H        -4.619318         1.560607         1.146955
 H        -3.436788        -1.342567         2.927322
 H        -5.116029        -1.560682         2.864931
 H        -4.102337        -2.595649         1.794409
