19
Iteration:  4919charge 0 multiplicity 1
 C         0.595814        -1.009016        -1.142955
 C        -0.429384        -0.380012        -0.404703
 C        -1.356429         0.103658         0.241514
 C        -2.554100         0.828414         0.320833
 O        -2.365439         2.235994         0.246739
 C        -3.529834         0.639296         1.688750
 C        -4.481819        -0.590024         1.538400
 C        -5.607274        -0.747143         2.597938
 O        -4.293681        -1.432246         0.641813
 H         1.557882        -1.176072        -0.711860
 H         0.321232        -2.054979        -1.466137
 H         0.702613        -0.483261        -2.145217
 H        -3.264274         0.547671        -0.448361
 H        -1.870837         2.312413        -0.600315
 H        -3.022611         0.693122         2.627977
 H        -4.244901         1.532832         1.574723
 H        -4.935120        -0.666301         3.496696
 H        -6.308639         0.114562         2.408445
 H        -6.270033        -1.665696         2.505046
