19
Iteration:  4905
 C         0.643160        -1.148347        -1.224559
 C        -0.283515        -0.301132        -0.430335
 C        -1.292474         0.144192         0.180647
 C        -2.600938         0.878931         0.472368
 O        -2.399716         2.303039         0.228434
 C        -3.550198         0.660343         1.602298
 C        -4.551083        -0.565267         1.511506
 C        -5.586624        -0.802404         2.576968
 O        -4.390004        -1.476266         0.734389
 H         1.625634        -1.147545        -0.649238
 H         0.149748        -2.129360        -1.302589
 H         0.880638        -0.696727        -2.233213
 H        -3.083750         0.438747        -0.357632
 H        -1.699921         2.454829        -0.396387
 H        -3.089090         0.482066         2.567975
 H        -4.040132         1.654885         1.710344
 H        -5.361392        -0.731011         3.631552
 H        -6.365512        -0.013434         2.573929
 H        -5.962233        -1.775597         2.315283
