19
Iteration:  1802charge 0 multiplicity 1
 C         0.595997        -1.301710        -0.158827
 C        -0.672458        -0.521192         0.148950
 C        -1.527510         0.392066         0.330592
 C        -2.744855         1.262249         0.318632
 O        -2.447223         2.651760         0.657743
 C        -3.848486         0.768518         1.184037
 C        -4.392899        -0.706004         0.944580
 C        -4.264749        -1.604881         2.192500
 O        -4.854035        -1.266621        -0.063011
 H         1.290231        -0.757374        -0.754960
 H         1.089238        -1.487477         0.795001
 H         0.410977        -2.204333        -0.777122
 H        -2.955526         1.333992        -0.766272
 H        -1.951142         2.755712         1.419034
 H        -3.382745         0.897332         2.164836
 H        -4.785125         1.310692         1.068395
 H        -3.199971        -1.503778         2.650660
 H        -5.122094        -1.156564         2.789172
 H        -4.589792        -2.635706         1.878040
