19
Iteration:  1674
 C         0.463278        -1.249981         0.134704
 C        -0.740161        -0.343223         0.160467
 C        -1.733651         0.326958        -0.072692
 C        -2.887666         1.191308         0.228577
 O        -2.594950         2.645143         0.511045
 C        -3.508275         0.560809         1.515644
 C        -4.170020        -0.709900         1.032553
 C        -4.567321        -1.722322         2.043591
 O        -4.432227        -1.006008        -0.109047
 H         1.229792        -1.033999        -0.749835
 H         0.923923        -1.240603         1.137858
 H         0.085982        -2.261638         0.022914
 H        -3.789241         1.118061        -0.397764
 H        -1.831656         2.696923         1.215449
 H        -2.662312         0.355593         2.223803
 H        -4.154343         1.344029         1.998107
 H        -5.078140        -2.520666         1.593346
 H        -3.710341        -1.926470         2.689842
 H        -5.118154        -1.205479         2.810765
