19
Iteration:  2185charge 0 multiplicity 1
 C         0.773113        -1.136114         0.179850
 C        -0.403124        -0.306381         0.046357
 C        -1.573572         0.126563         0.208694
 C        -2.697408         1.047700         0.069748
 O        -2.146482         2.373730         0.371257
 C        -3.972364         0.716643         1.040709
 C        -4.625898        -0.667537         1.094517
 C        -3.811386        -1.733307         1.830374
 O        -5.756116        -0.768993         0.644012
 H         1.627223        -0.513719         0.557481
 H         0.491251        -2.048968         0.726507
 H         1.218297        -1.288637        -0.814233
 H        -3.045982         1.201621        -0.977742
 H        -1.553015         2.460729         1.102228
 H        -3.355638         0.615769         1.985965
 H        -4.756384         1.500752         1.080483
 H        -3.617732        -1.627241         2.869450
 H        -4.323126        -2.627478         1.685972
 H        -2.821726        -1.728599         1.416812
