19
Iteration:   656
 C         1.208468        -0.379789        -0.613833
 C        -0.115870        -0.100517        -0.122852
 C        -1.253403         0.142633         0.268489
 C        -2.569378         0.677874         0.537429
 O        -2.560314         2.011806         0.954152
 C        -3.281283        -0.175117         1.578335
 C        -4.639257        -0.689317         1.037671
 C        -5.838215        -0.440893         1.922710
 O        -4.812505        -1.398367         0.019997
 H         1.750202         0.504811        -0.360860
 H         1.823100        -1.182725        -0.223810
 H         1.172575        -0.532519        -1.707911
 H        -3.219349         0.368450        -0.312338
 H        -3.563433         2.228528         0.855330
 H        -2.771480        -1.128738         1.671989
 H        -3.345810         0.401388         2.516795
 H        -5.951923         0.619263         1.681128
 H        -6.645978        -1.041159         1.485748
 H        -5.669484        -0.322664         3.038693
