19
Iteration:  3883
 C         0.494894        -1.431047         0.163741
 C        -0.629748        -0.560733         0.305625
 C        -1.593833         0.122080        -0.028743
 C        -2.764120         1.003808        -0.003233
 O        -2.425653         2.450689        -0.161225
 C        -3.600681         0.854483         1.366908
 C        -4.432115        -0.474182         1.327956
 C        -3.585345        -1.646030         1.748047
 O        -5.543904        -0.667029         0.932454
 H         0.728204        -1.829453        -0.788674
 H         1.408838        -1.016081         0.623886
 H         0.399161        -2.363214         0.816153
 H        -3.362609         0.756552        -0.954832
 H        -3.301717         2.916264        -0.255164
 H        -2.875663         0.932773         2.209928
 H        -4.149262         1.815402         1.452741
 H        -3.251764        -2.240141         0.794346
 H        -2.688198        -1.497793         2.377557
 H        -4.360493        -2.234970         2.344482
