19
Iteration:   743
 C         1.309269        -0.318070        -0.403039
 C        -0.023411         0.085415        -0.137172
 C        -1.178456         0.278137         0.199628
 C        -2.601939         0.554674         0.417374
 O        -2.744578         1.852617         0.858833
 C        -3.230489        -0.442448         1.404787
 C        -4.683756        -0.762327         1.055338
 C        -5.745103        -0.128451         2.009406
 O        -4.958928        -1.366479         0.051718
 H         2.104932         0.383365        -0.413509
 H         1.421383        -0.995638         0.445419
 H         1.307854        -0.949602        -1.317803
 H        -3.101029         0.523657        -0.567183
 H        -3.320270         1.880032         1.682756
 H        -2.713204        -1.362430         1.186467
 H        -2.922450        -0.208086         2.421191
 H        -5.249071         0.730567         2.503654
 H        -6.765333         0.164811         1.612803
 H        -5.927787        -0.996553         2.834846
