19
Iteration:  1190charge 0 multiplicity 1
 C         1.368811        -0.095479         0.042371
 C        -0.046394        -0.084645         0.031604
 C        -1.222448         0.095448         0.140525
 C        -2.584445         0.471978         0.160764
 O        -2.639052         1.876201         0.029417
 C        -3.242680        -0.156135         1.473780
 C        -4.779558        -0.700356         1.172188
 C        -5.479422        -1.150560         2.407618
 O        -5.288061        -0.648858         0.097866
 H         1.629296         0.540958        -0.784342
 H         1.849810         0.393651         0.894211
 H         1.837879        -1.067279        -0.213601
 H        -3.040183        -0.006254        -0.748098
 H        -2.544939         2.380428         0.837416
 H        -2.812210        -1.030045         1.912652
 H        -3.437351         0.568385         2.311009
 H        -6.233574        -0.434124         2.670125
 H        -6.114439        -2.059348         2.138668
 H        -4.748798        -1.315919         3.287429
