19
Iteration:  3177charge 0 multiplicity 1
 C         0.591044        -1.046894        -0.571837
 C        -0.592793        -0.327743        -0.287999
 C        -1.744913         0.119992        -0.248743
 C        -2.814527         0.947127         0.132235
 O        -2.245446         2.267862         0.629484
 C        -3.440490         0.461805         1.391631
 C        -4.304194        -0.731950         1.326714
 C        -5.033503        -0.705069         2.663666
 O        -4.589905        -1.410991         0.394425
 H         0.786278        -1.910951         0.104516
 H         0.415769        -1.300628        -1.665624
 H         1.401100        -0.265719        -0.692423
 H        -3.678987         1.109165        -0.600216
 H        -1.408379         2.288519         0.223468
 H        -2.785320         0.504919         2.228045
 H        -4.146979         1.364212         1.610354
 H        -4.347193        -0.421510         3.451220
 H        -5.693938         0.133049         2.552732
 H        -5.361460        -1.665901         3.053245
