19
Iteration:  3107
 C         0.764654        -1.099021        -0.583395
 C        -0.487438        -0.256799        -0.573611
 C        -1.581992         0.102981        -0.185730
 C        -2.749188         0.932034         0.242442
 O        -2.208409         2.345242         0.326476
 C        -3.548907         0.623741         1.514542
 C        -4.456709        -0.692824         1.505548
 C        -5.208357        -1.028841         2.747198
 O        -4.681011        -1.272039         0.443678
 H         0.785694        -1.858133         0.206604
 H         0.745898        -1.613375        -1.543137
 H         1.692481        -0.505871        -0.638333
 H        -3.514487         0.908975        -0.643622
 H        -1.373704         2.294096         0.727547
 H        -2.803150         0.717242         2.387074
 H        -4.192435         1.471768         1.725963
 H        -4.822036        -0.607966         3.675879
 H        -6.209671        -0.687476         2.473299
 H        -5.120717        -2.097449         2.808012
