19
Iteration:  4322charge 0 multiplicity 1
 C         0.912773        -1.267153        -0.017769
 C        -0.344017        -0.504597        -0.002026
 C        -1.376460         0.133982         0.166781
 C        -2.620520         0.927410         0.071255
 O        -2.355303         2.302404        -0.074275
 C        -3.845838         0.818314         1.218450
 C        -4.690522        -0.503083         1.365978
 C        -3.886278        -1.663328         1.816274
 O        -5.925473        -0.575624         1.062486
 H         1.912381        -0.760938        -0.289070
 H         1.014802        -1.614752         1.021399
 H         0.813532        -2.187394        -0.616309
 H        -2.955608         0.657286        -0.851731
 H        -1.419737         2.640424         0.086173
 H        -3.402276         0.847496         2.293069
 H        -4.508117         1.651784         0.985879
 H        -3.100488        -1.735445         1.015807
 H        -3.532627        -1.576591         2.833166
 H        -4.434482        -2.651511         1.812184
