19
Iteration:  1492
 C         0.838931        -0.819311        -0.105240
 C        -0.525190        -0.317531         0.021521
 C        -1.602711         0.222443         0.282850
 C        -2.802111         0.969252         0.291115
 O        -2.367217         2.447744         0.403329
 C        -3.803428         0.759383         1.433311
 C        -4.376158        -0.772769         1.156440
 C        -5.032024        -1.669361         2.173409
 O        -4.475816        -1.139983        -0.034399
 H         1.170808        -0.334459        -1.012511
 H         1.478150        -0.369933         0.653310
 H         0.837454        -1.861433        -0.365197
 H        -3.401023         0.690190        -0.670798
 H        -1.691978         2.347393         1.077557
 H        -3.253842         0.756816         2.372395
 H        -4.677951         1.371920         1.378552
 H        -4.880235        -1.440679         3.204815
 H        -6.052381        -1.632503         1.734223
 H        -4.663307        -2.736291         2.187971
