19
Iteration:  3345charge 0 multiplicity 1
 C         0.444049        -1.397265        -0.662724
 C        -0.635483        -0.484360        -0.415385
 C        -1.387659         0.314831         0.140352
 C        -2.606431         1.181428         0.268427
 O        -2.388113         2.619194         0.361151
 C        -3.639209         0.731442         1.376451
 C        -4.423686        -0.643448         1.405900
 C        -4.998627        -1.109679         2.645793
 O        -4.497725        -1.500634         0.457368
 H         0.508070        -2.410624        -0.167440
 H         0.605763        -1.620403        -1.735572
 H         1.345646        -0.839897        -0.369236
 H        -3.075241         0.964987        -0.814401
 H        -1.587255         2.849588        -0.060926
 H        -3.192173         0.921352         2.387340
 H        -4.519783         1.424693         1.252532
 H        -4.239722        -1.828004         2.968294
 H        -5.262582        -0.417961         3.440892
 H        -5.700644        -1.881052         2.415937
