19
Iteration:  3308
 C         0.325666        -1.326253        -0.820003
 C        -0.432501        -0.372845        -0.040978
 C        -1.464645         0.253950         0.140978
 C        -2.653284         1.001726         0.235313
 O        -2.506906         2.458718         0.324600
 C        -3.527116         0.625496         1.479154
 C        -4.299278        -0.659432         1.403742
 C        -5.138492        -1.011874         2.665042
 O        -4.313285        -1.327429         0.319639
 H         0.288646        -2.357440        -0.390512
 H        -0.199492        -1.282015        -1.827356
 H         1.402402        -1.027957        -0.961314
 H        -3.194678         0.788361        -0.737863
 H        -1.904001         2.646716        -0.449339
 H        -2.914149         0.877983         2.352487
 H        -4.380639         1.442890         1.549538
 H        -4.418400        -1.606584         3.229581
 H        -5.373898        -0.128431         3.267505
 H        -6.149706        -1.413613         2.423438
