19
Iteration:  2359charge 0 multiplicity 1
 C         0.613996        -1.204820         0.280418
 C        -0.706986        -0.561785         0.030855
 C        -1.568311         0.271532        -0.099192
 C        -2.786981         1.136339         0.121843
 O        -2.515186         2.629660         0.037719
 C        -3.544586         0.500254         1.435696
 C        -4.387868        -0.734704         1.237863
 C        -3.965659        -1.903220         1.911619
 O        -5.311723        -0.555381         0.520565
 H         0.888595        -0.648648         1.145121
 H         0.544451        -2.173716         0.721632
 H         1.356696        -1.148646        -0.485609
 H        -3.442264         0.942611        -0.689430
 H        -1.635113         2.775736         0.533208
 H        -2.798161         0.463280         2.253717
 H        -4.144089         1.300074         1.787895
 H        -2.951831        -2.075436         1.531252
 H        -3.956530        -1.768504         2.971782
 H        -4.773933        -2.693726         1.768650
