19
Iteration:  2013
 C         0.373975        -1.564306         0.293150
 C        -0.654643        -0.438735         0.331099
 C        -1.430003         0.533122         0.257938
 C        -2.688073         1.188553         0.183770
 O        -2.749336         2.687046         0.250114
 C        -3.615222         0.747106         1.345442
 C        -4.307388        -0.680542         1.075862
 C        -3.787315        -1.879607         1.686276
 O        -5.232822        -0.828264         0.282515
 H         1.398846        -1.162316         0.340579
 H         0.302750        -2.265918         1.106416
 H         0.216240        -2.092823        -0.623239
 H        -3.204204         0.817964        -0.688908
 H        -2.015790         2.924941        -0.358590
 H        -2.969048         0.559255         2.177391
 H        -4.192301         1.643241         1.474953
 H        -4.207812        -2.735045         1.058731
 H        -2.645329        -1.842067         1.679715
 H        -3.964003        -2.243748         2.746532
