19
Iteration:  4224charge 0 multiplicity 1
 C         0.781833        -0.724790         0.229237
 C        -0.614052        -0.591239         0.164961
 C        -1.680443        -0.046655        -0.094326
 C        -2.776824         0.910425         0.056015
 O        -2.150419         2.184678        -0.393384
 C        -3.433512         0.604261         1.471248
 C        -4.493761        -0.523487         1.333255
 C        -4.137289        -1.932753         1.604673
 O        -5.716005        -0.277170         1.157014
 H         1.369879         0.091892        -0.342293
 H         1.028781        -0.666227         1.312303
 H         1.133421        -1.784944         0.103717
 H        -3.649469         0.700517        -0.785475
 H        -1.389098         2.424325         0.224151
 H        -2.711633         0.227955         2.320739
 H        -3.935001         1.496781         1.859128
 H        -3.200037        -2.388724         1.201074
 H        -4.019226        -1.951098         2.689950
 H        -4.821402        -2.820103         1.530922
