19
Iteration:   910
 C         1.413489         0.215848         0.283465
 C         0.042023         0.001780         0.052222
 C        -1.159231         0.030388        -0.079039
 C        -2.628167         0.277342         0.057588
 O        -2.725456         1.552937         0.653832
 C        -3.301787        -0.895015         0.768602
 C        -4.689060        -0.661942         1.050743
 C        -5.154197        -0.139533         2.351660
 O        -5.630321        -0.777906         0.251402
 H         1.817794         1.212021         0.035721
 H         1.527564         0.101058         1.352406
 H         2.001997        -0.554791        -0.182765
 H        -2.996230         0.180515        -0.987944
 H        -3.580314         1.573015         1.155997
 H        -3.078583        -1.735011         0.115605
 H        -2.727476        -1.087293         1.671120
 H        -5.116547         0.995646         2.208279
 H        -6.185082        -0.498748         2.561316
 H        -4.541022        -0.382008         3.271146
