19
Iteration:  3645
 C         0.454025        -1.205876        -0.087554
 C        -0.969151        -0.798434        -0.078355
 C        -1.805314         0.105357        -0.133157
 C        -2.867424         1.093535         0.089295
 O        -2.151911         2.396760         0.019784
 C        -3.681706         0.895844         1.444979
 C        -4.336513        -0.499524         1.329888
 C        -4.025168        -1.499264         2.476583
 O        -4.942756        -0.918084         0.437089
 H         0.659480        -2.062946        -0.669293
 H         0.945157        -0.327613        -0.522277
 H         0.708008        -1.200266         0.975888
 H        -3.573128         1.191510        -0.701004
 H        -1.547401         2.513405         0.756288
 H        -3.070884         1.069486         2.342079
 H        -4.453602         1.666968         1.374587
 H        -2.966765        -1.730630         2.413337
 H        -4.100225        -1.334507         3.512621
 H        -4.591972        -2.365320         2.205082
