19
Iteration:  1542
 C         0.814988        -0.926716        -0.244768
 C        -0.484980        -0.303414         0.202627
 C        -1.614254         0.113460         0.377063
 C        -2.796209         1.106061         0.320834
 O        -2.462389         2.449926         0.619903
 C        -3.873904         0.664399         1.274486
 C        -4.417889        -0.754606         0.989473
 C        -4.779865        -1.541678         2.257122
 O        -4.530125        -1.168766        -0.143157
 H         1.354045        -0.583426        -1.188945
 H         1.485377        -0.725548         0.603395
 H         0.535722        -1.988234        -0.335217
 H        -3.259240         1.065063        -0.629977
 H        -1.777855         2.590278        -0.045542
 H        -3.456872         0.689623         2.308817
 H        -4.708421         1.426726         1.203622
 H        -5.398495        -0.909660         2.978043
 H        -5.348356        -2.403646         1.921045
 H        -3.981769        -1.773953         2.946077
