19
Iteration:  1375charge 0 multiplicity 1
 C         0.860133        -0.886933         0.000469
 C        -0.258187        -0.025100        -0.021534
 C        -1.278172         0.586765         0.046735
 C        -2.636756         0.906300         0.231824
 O        -2.755754         2.340803         0.508637
 C        -3.382065         0.096073         1.424259
 C        -4.521832        -0.749060         1.114349
 C        -5.310164        -1.222332         2.240020
 O        -4.630705        -1.256456        -0.007327
 H         1.606804        -0.818303        -0.774114
 H         1.383183        -0.574875         0.954921
 H         0.333491        -1.913054        -0.053609
 H        -3.161218         0.642344        -0.668105
 H        -3.273749         2.903198         0.013467
 H        -2.594539        -0.382350         2.029741
 H        -3.627665         0.986730         2.082257
 H        -4.972052        -2.274094         2.301481
 H        -5.082785        -0.708079         3.180812
 H        -6.362482        -1.499477         1.981336
