19
Iteration:  4821
 C         0.589757        -1.045429        -0.667416
 C        -0.686599        -0.484937        -0.450923
 C        -1.678150         0.129189        -0.275689
 C        -2.713335         0.989190         0.192661
 O        -2.494265         2.421112         0.388972
 C        -3.201698         0.283601         1.627098
 C        -4.306672        -0.684194         1.496290
 C        -5.335546        -0.519685         2.640740
 O        -4.343522        -1.460747         0.499209
 H         1.354433        -0.769695        -0.035021
 H         0.553159        -2.142586        -0.606757
 H         0.851145        -0.880123        -1.734889
 H        -3.626415         0.961071        -0.512517
 H        -1.537241         2.512098         0.677732
 H        -2.318584        -0.262034         1.987131
 H        -3.446216         1.156368         2.317949
 H        -4.771697        -0.550056         3.601214
 H        -6.075149         0.249720         2.360593
 H        -5.848871        -1.492163         2.492393
