19
Iteration:   400
 C         1.223354        -0.690749        -0.102412
 C        -0.146056        -0.194773         0.016015
 C        -1.276063         0.252462         0.022363
 C        -2.601740         0.762860         0.212532
 O        -2.785715         2.177073         0.470266
 C        -3.253681        -0.041335         1.345909
 C        -4.609891        -0.691967         1.149157
 C        -5.251262        -1.596441         2.272620
 O        -5.273463        -0.321137         0.182740
 H         1.824538        -0.159533         0.671541
 H         1.373046        -1.758639         0.052171
 H         1.617933        -0.566382        -1.094940
 H        -3.139751         0.502496        -0.785527
 H        -2.265466         2.535834        -0.384348
 H        -2.284922        -0.678213         1.604509
 H        -3.356937         0.514556         2.268843
 H        -5.378979        -1.090902         3.279785
 H        -6.197281        -2.025043         1.941394
 H        -4.553992        -2.367959         2.516010
