19
Iteration:  3118
 C         0.735449        -1.078786        -0.587358
 C        -0.504707        -0.349931        -0.602644
 C        -1.555662         0.186630        -0.194394
 C        -2.671427         1.047267         0.188605
 O        -2.172411         2.337996         0.350266
 C        -3.585115         0.591939         1.468013
 C        -4.522874        -0.597772         1.425395
 C        -5.214025        -1.073465         2.819110
 O        -4.676705        -1.359790         0.491622
 H         0.899116        -1.745286         0.265705
 H         0.969072        -1.653787        -1.476768
 H         1.516948        -0.302083        -0.439858
 H        -3.436254         1.212803        -0.698125
 H        -1.242508         2.192532         0.621202
 H        -3.011114         0.201952         2.402938
 H        -4.082855         1.514711         1.703455
 H        -4.846441        -0.643395         3.757952
 H        -6.298681        -0.828027         2.839600
 H        -5.318323        -2.142869         2.855099
