19
Iteration:  1263charge 0 multiplicity 1
 C         1.296118        -0.471551        -0.195248
 C         0.000046         0.029175         0.104510
 C        -1.177312         0.203960         0.263524
 C        -2.644692         0.604949         0.409578
 O        -2.696806         2.065678         0.188758
 C        -3.463186         0.183339         1.560042
 C        -4.622490        -0.748267         1.130919
 C        -5.513271        -1.263010         2.250674
 O        -5.080356        -0.903748         0.032527
 H         1.685395         0.026093        -1.104356
 H         2.172929        -0.214058         0.458420
 H         1.277904        -1.583603        -0.416314
 H        -2.898800         0.245465        -0.562630
 H        -2.852721         2.370858        -0.772685
 H        -2.812182        -0.460891         2.217409
 H        -3.765608         1.067771         2.147352
 H        -6.554218        -1.469883         2.027057
 H        -5.250419        -2.292713         2.559664
 H        -5.344814        -0.567089         3.125582
