19
Iteration:  2548charge 0 multiplicity 1
 C         0.335778        -1.563007        -0.182584
 C        -0.819205        -0.600477        -0.024827
 C        -1.636231         0.267176         0.342815
 C        -2.771806         1.271577         0.237424
 O        -2.317400         2.598635         0.296292
 C        -3.975545         0.923285         1.211150
 C        -4.274942        -0.636456         1.194482
 C        -3.739774        -1.544902         2.284356
 O        -5.005053        -1.051138         0.228339
 H         1.090178        -1.577368         0.595232
 H         0.158552        -2.558670        -0.472713
 H         0.799812        -1.113395        -1.022875
 H        -3.148229         1.163767        -0.738606
 H        -1.749647         2.590102         1.026928
 H        -3.849271         1.237484         2.224682
 H        -4.907526         1.526251         0.952673
 H        -4.300615        -2.523423         2.197382
 H        -2.590526        -1.717200         2.353928
 H        -4.043303        -1.004422         3.243274
