19
Iteration:  2011charge 0 multiplicity 1
 C         0.379955        -1.556467         0.286836
 C        -0.655799        -0.436049         0.326943
 C        -1.441123         0.541482         0.263341
 C        -2.693095         1.199741         0.180727
 O        -2.735944         2.679755         0.253032
 C        -3.629274         0.726479         1.340829
 C        -4.324097        -0.668373         1.071486
 C        -3.770059        -1.895701         1.696624
 O        -5.223237        -0.830284         0.279543
 H         1.428897        -1.194682         0.367631
 H         0.279145        -2.271793         1.110984
 H         0.163531        -2.124874        -0.603520
 H        -3.162432         0.802638        -0.700385
 H        -1.986789         2.972043        -0.415613
 H        -2.974357         0.536497         2.181587
 H        -4.180884         1.626977         1.530639
 H        -4.281407        -2.637006         1.097526
 H        -2.693161        -1.875271         1.670214
 H        -3.942127        -2.149039         2.755819
