19
Iteration:  2119
 C         0.505121        -1.153545         0.359753
 C        -0.730415        -0.492208         0.165990
 C        -1.694061         0.154897         0.079979
 C        -2.769984         1.097884         0.118725
 O        -2.313470         2.466018         0.376832
 C        -3.768587         0.793237         1.180887
 C        -4.387061        -0.648070         1.038370
 C        -3.605189        -1.873925         1.648548
 O        -5.509455        -0.696044         0.562785
 H         1.223480        -0.307568         0.691362
 H         0.523826        -1.940876         1.166101
 H         0.936457        -1.618450        -0.564467
 H        -3.198244         1.010748        -0.989979
 H        -1.326215         2.318907         0.390273
 H        -3.042940         0.898921         2.062827
 H        -4.591817         1.536144         1.217885
 H        -2.595360        -1.678679         1.765919
 H        -3.863228        -2.164659         2.629431
 H        -3.804751        -2.715745         1.010596
