19
Iteration:  4834charge 0 multiplicity 1
 C         0.653990        -1.135243        -0.830219
 C        -0.606359        -0.450072        -0.393326
 C        -1.633771         0.141704        -0.132889
 C        -2.773184         0.960162         0.340164
 O        -2.529840         2.400400         0.396820
 C        -3.241146         0.419091         1.551355
 C        -4.314859        -0.652984         1.392295
 C        -5.295412        -0.573434         2.554948
 O        -4.397682        -1.511367         0.553073
 H         1.416642        -0.760709        -0.173277
 H         0.556087        -2.223196        -0.729175
 H         0.978111        -0.827102        -1.814458
 H        -3.591843         0.892213        -0.465933
 H        -1.611128         2.615887         0.525938
 H        -2.440001        -0.204547         2.072310
 H        -3.510161         1.134710         2.319976
 H        -4.856707        -0.175085         3.496699
 H        -5.822579         0.342870         2.426639
 H        -6.007281        -1.374546         2.867987
