19
Iteration:  3987charge 0 multiplicity 1
 C         0.576964        -1.061221         0.337012
 C        -0.697986        -0.457178         0.234873
 C        -1.710812         0.018203        -0.269943
 C        -2.858205         0.933033        -0.098837
 O        -2.121173         2.291675        -0.015847
 C        -3.573593         0.660744         1.148102
 C        -4.400586        -0.539201         1.270674
 C        -3.719264        -1.857062         1.691880
 O        -5.677475        -0.428256         1.243962
 H         1.207717        -1.136237        -0.591636
 H         1.198897        -0.551504         1.058625
 H         0.513414        -1.996742         0.811008
 H        -3.399179         0.971834        -1.125720
 H        -2.639563         2.945444        -0.626069
 H        -2.918991         0.649051         2.029946
 H        -4.242537         1.514867         1.157509
 H        -3.197750        -2.230348         0.897336
 H        -3.029705        -1.566713         2.464648
 H        -4.411164        -2.587969         2.043402
