19
Iteration:   994
 C         1.486005         0.219143         0.445312
 C         0.073524         0.090347         0.185517
 C        -1.134759         0.125115        -0.049560
 C        -2.610688         0.143364        -0.199959
 O        -3.002874         1.371827         0.461691
 C        -3.338130        -0.938847         0.761615
 C        -4.776424        -0.659674         1.101014
 C        -5.056917        -0.327249         2.606652
 O        -5.554657        -0.451837         0.205607
 H         1.687745         1.097416        -0.171928
 H         1.789316         0.379083         1.511348
 H         2.146958        -0.581217        -0.023611
 H        -3.035234         0.048345        -1.207742
 H        -2.551873         1.999143        -0.090834
 H        -3.278224        -1.897554         0.269249
 H        -2.636970        -0.901162         1.671069
 H        -4.486393         0.543071         2.753351
 H        -6.068456        -0.002864         2.589507
 H        -4.666708        -1.075636         3.323784
