19
Iteration:  4374charge 0 multiplicity 1
 C         0.447958        -1.390103        -0.079077
 C        -0.560063        -0.495050         0.455981
 C        -1.479559         0.278485         0.309005
 C        -2.683337         0.987642        -0.064477
 O        -2.425541         2.451264        -0.034880
 C        -3.655476         0.748862         1.023681
 C        -4.406807        -0.568305         1.276974
 C        -3.752294        -1.808561         1.896239
 O        -5.623700        -0.538812         0.948810
 H         1.255674        -0.823637        -0.414023
 H         0.928068        -2.112039         0.552373
 H         0.035148        -1.851637        -1.006492
 H        -2.864359         0.746993        -1.198078
 H        -1.453639         2.591972        -0.041527
 H        -3.192095         0.999559         1.984561
 H        -4.455793         1.438367         0.876016
 H        -2.880546        -2.136054         1.338844
 H        -3.350841        -1.641187         2.899675
 H        -4.464915        -2.642147         2.102419
