19
Iteration:  2109charge 0 multiplicity 1
 C         0.509848        -1.200734         0.393248
 C        -0.703383        -0.487585         0.173745
 C        -1.686117         0.211436         0.082068
 C        -2.782961         1.140673         0.114334
 O        -2.318821         2.460338         0.310910
 C        -3.807896         0.774448         1.278893
 C        -4.395104        -0.599480         1.067634
 C        -3.562076        -1.918941         1.606420
 O        -5.481702        -0.702048         0.522606
 H         1.405660        -0.515094         0.641725
 H         0.355804        -2.000968         1.163012
 H         0.766168        -1.674893        -0.590446
 H        -3.516368         1.058312        -0.793976
 H        -1.289584         2.474807         0.212710
 H        -3.329235         0.687888         2.304645
 H        -4.569177         1.573689         1.325416
 H        -2.520360        -1.792905         1.513887
 H        -3.862965        -1.895222         2.629726
 H        -3.802275        -2.886491         1.178765
