19
Iteration:   781charge 0 multiplicity 1
 C         1.425140        -0.263306        -0.315580
 C        -0.016044        -0.059118         0.019902
 C        -1.157095         0.350763         0.141228
 C        -2.568196         0.562349         0.383728
 O        -2.998857         1.770935         0.938905
 C        -3.085146        -0.623087         1.233304
 C        -4.692963        -0.676591         1.040359
 C        -5.569973        -0.107750         2.009541
 O        -5.212620        -1.264167         0.114371
 H         2.059113         0.665283        -0.533959
 H         1.855380        -0.901399         0.484006
 H         1.553011        -0.883873        -1.209361
 H        -3.082315         0.334381        -0.605238
 H        -2.578543         2.563563         0.356166
 H        -2.688382        -1.610612         0.808127
 H        -2.726063        -0.524190         2.290482
 H        -5.213647         0.875243         2.413483
 H        -6.559372         0.016429         1.597264
 H        -5.555169        -0.695166         2.925375
