19
Iteration:  3828
 C         0.239894        -1.502682        -0.071670
 C        -0.681499        -0.412384         0.190660
 C        -1.510005         0.343239         0.632732
 C        -2.711739         1.023686         0.226548
 O        -2.423723         2.204573        -0.275477
 C        -3.719277         1.006387         1.304390
 C        -4.293581        -0.473339         1.320072
 C        -3.548324        -1.659673         1.820433
 O        -5.404588        -0.699386         0.734789
 H         0.104223        -1.876000        -1.051291
 H         1.329274        -1.331568        -0.091982
 H         0.131400        -2.377679         0.663418
 H        -3.267970         0.300040        -0.600873
 H        -3.205754         2.712651        -0.725459
 H        -3.173916         1.281683         2.261278
 H        -4.539933         1.728549         1.094856
 H        -2.812943        -2.069814         0.992869
 H        -2.796478        -1.518337         2.636741
 H        -4.109989        -2.633785         1.923235
