19
Iteration:  2222
 C         0.883470        -1.135384        -0.034652
 C        -0.416621        -0.488910         0.279614
 C        -1.435561         0.139558         0.254412
 C        -2.657450         0.999253         0.201447
 O        -2.371360         2.403864         0.249718
 C        -3.964701         0.749069         1.064943
 C        -4.571573        -0.542123         1.133388
 C        -3.928860        -1.766526         1.824439
 O        -5.640280        -0.704742         0.634235
 H         1.622000        -0.604722         0.631024
 H         1.068679        -2.187318         0.264774
 H         1.053788        -1.163653        -1.133964
 H        -3.147736         0.779747        -0.836358
 H        -1.856439         2.503881         1.116975
 H        -3.739958         0.897881         2.147653
 H        -4.667454         1.538786         0.805071
 H        -4.604585        -2.125529         2.630053
 H        -3.868465        -2.498180         0.945871
 H        -2.879512        -1.591081         2.127402
