19
Iteration:  1757charge 0 multiplicity 1
 C         0.376106        -1.310796        -0.079464
 C        -0.495036        -0.207027         0.205805
 C        -1.599326         0.372489         0.261838
 C        -2.805020         1.193555         0.217271
 O        -2.486644         2.515910         0.548388
 C        -3.845777         0.735659         1.349993
 C        -4.314293        -0.722725         1.013216
 C        -4.390543        -1.700880         2.192858
 O        -4.596270        -1.067164        -0.120023
 H         1.110862        -1.099682        -0.794835
 H         1.046512        -1.773592         0.653313
 H        -0.158259        -2.203012        -0.520784
 H        -3.401686         1.072255        -0.682726
 H        -1.848929         2.538220         1.201407
 H        -3.185877         0.874897         2.210134
 H        -4.747174         1.361356         1.346905
 H        -3.491638        -2.445015         2.043072
 H        -4.018640        -1.362466         3.197357
 H        -5.358223        -2.268890         2.057976
