19
Iteration:  2223charge 0 multiplicity 1
 C         0.892618        -1.136644        -0.043175
 C        -0.419647        -0.499895         0.290181
 C        -1.432535         0.141846         0.257630
 C        -2.669560         1.003283         0.203797
 O        -2.375679         2.411279         0.240731
 C        -3.962224         0.750595         1.070785
 C        -4.569571        -0.538443         1.139180
 C        -3.926765        -1.776257         1.828048
 O        -5.645248        -0.701323         0.625865
 H         1.614932        -0.614041         0.601521
 H         1.059943        -2.187165         0.275434
 H         1.091280        -1.152504        -1.136748
 H        -3.118804         0.776040        -0.840300
 H        -1.841913         2.465900         1.141203
 H        -3.745162         0.889057         2.136308
 H        -4.650133         1.547847         0.796042
 H        -4.603972        -2.162901         2.646532
 H        -3.859616        -2.488504         0.917445
 H        -2.861872        -1.571341         2.164220
