19
Iteration:  2446charge 0 multiplicity 1
 C         0.468940        -1.368029         0.144901
 C        -0.787531        -0.597194        -0.032861
 C        -1.619145         0.247857         0.139044
 C        -2.761899         1.213133         0.129455
 O        -2.469898         2.601778         0.195959
 C        -3.730674         0.726271         1.334368
 C        -4.306062        -0.637729         1.220833
 C        -3.780525        -1.662546         2.068185
 O        -5.226894        -0.847548         0.392589
 H         1.052425        -1.112749         1.010947
 H         0.404761        -2.469556         0.024270
 H         1.017761        -1.140284        -0.785627
 H        -3.290068         1.143009        -0.822857
 H        -1.441518         2.631271         0.411773
 H        -3.021785         0.741297         2.189504
 H        -4.455773         1.473534         1.524907
 H        -3.769835        -1.476175         3.185923
 H        -4.484278        -2.500127         1.818295
 H        -2.957590        -2.219864         1.489930
