19
Iteration:  1791charge 0 multiplicity 1
 C         0.504753        -1.301408        -0.147254
 C        -0.615731        -0.438995         0.201022
 C        -1.521162         0.399711         0.278804
 C        -2.688342         1.280040         0.294833
 O        -2.463833         2.623853         0.617944
 C        -3.868412         0.703689         1.196601
 C        -4.307888        -0.780699         0.953088
 C        -4.345683        -1.635478         2.224716
 O        -4.812679        -1.161686        -0.090569
 H         1.052462        -0.625326        -0.752299
 H         1.138480        -1.590917         0.693872
 H         0.249208        -2.217552        -0.710514
 H        -3.164948         1.280733        -0.706497
 H        -1.940153         2.550004         1.437812
 H        -3.775573         0.724125         2.266732
 H        -4.613150         1.444441         0.971397
 H        -3.229680        -1.708918         2.492656
 H        -4.752034        -1.098947         3.127670
 H        -4.702258        -2.686796         2.222480
