19
Iteration:  4249
 C         0.805255        -0.738817         0.167408
 C        -0.627646        -0.682366         0.177390
 C        -1.671975        -0.079872         0.008116
 C        -2.755635         0.972964        -0.032117
 O        -2.107328         2.204860        -0.279257
 C        -3.545343         0.779106         1.361604
 C        -4.541454        -0.564892         1.384334
 C        -4.101873        -1.973209         1.675477
 O        -5.663339        -0.331646         1.150127
 H         1.126029         0.182668        -0.429973
 H         1.255499        -0.704853         1.177126
 H         1.204513        -1.647109        -0.232754
 H        -3.565601         0.785809        -0.937038
 H        -1.275575         2.163533         0.126829
 H        -2.976475         0.649684         2.273189
 H        -4.256418         1.581052         1.495166
 H        -3.266973        -2.397343         1.062965
 H        -3.980266        -2.306292         2.772188
 H        -4.970121        -2.636786         1.376559
