19
Iteration:  2725
 C         0.195618        -1.548178        -0.188864
 C        -0.770160        -0.494030        -0.120902
 C        -1.642912         0.343997         0.109756
 C        -2.745614         1.221933         0.170810
 O        -2.466796         2.633705         0.111265
 C        -3.503298         0.697119         1.519517
 C        -4.220883        -0.604294         1.334439
 C        -4.249116        -1.693453         2.447443
 O        -4.729138        -0.855680         0.195508
 H         0.531685        -1.654741         0.837044
 H        -0.151158        -2.512509        -0.517428
 H         1.083826        -1.348823        -0.764620
 H        -3.411136         1.054685        -0.628231
 H        -1.557013         2.745410         0.280382
 H        -2.997011         0.851774         2.426598
 H        -4.371632         1.425405         1.594286
 H        -3.892938        -1.351945         3.449538
 H        -5.381563        -1.904638         2.649241
 H        -3.750826        -2.627813         1.996198
