19
Iteration:  3495
 C         0.393543        -1.463339        -0.152960
 C        -0.710963        -0.503332        -0.118665
 C        -1.747255         0.170590        -0.209692
 C        -2.893400         1.064720         0.072546
 O        -2.507656         2.464969         0.298851
 C        -3.448476         0.767357         1.396696
 C        -4.298007        -0.513437         1.394955
 C        -4.375934        -1.366482         2.553602
 O        -4.617271        -0.925000         0.271945
 H        -0.226888        -2.455597        -0.135050
 H         0.989026        -1.391146        -1.119132
 H         1.055087        -1.529526         0.726825
 H        -3.623093         1.051092        -0.756175
 H        -1.723579         2.607350        -0.206184
 H        -2.700929         0.499141         2.131451
 H        -3.789848         1.764020         1.766263
 H        -3.396521        -1.461552         3.122273
 H        -5.213308        -0.994979         3.316771
 H        -4.677381        -2.409501         2.285460
