19
Iteration:  2458charge 0 multiplicity 1
 C         0.506840        -1.405121         0.019395
 C        -0.857074        -0.716616         0.038929
 C        -1.616044         0.268481         0.224343
 C        -2.806989         1.198691         0.123566
 O        -2.470478         2.597597         0.232752
 C        -3.748094         0.831063         1.291691
 C        -4.342872        -0.568965         1.177721
 C        -3.736860        -1.722289         2.055748
 O        -5.174194        -0.864559         0.376842
 H         0.955030        -1.047083         0.930293
 H         0.511435        -2.474841         0.060268
 H         1.130897        -0.999699        -0.752118
 H        -3.286961         1.027769        -0.816505
 H        -1.557128         2.748440         0.472470
 H        -3.125248         0.846415         2.197490
 H        -4.557874         1.497661         1.396781
 H        -3.906329        -1.416079         3.133006
 H        -4.322371        -2.631787         1.874995
 H        -2.611378        -1.708881         2.080607
