19
Iteration:  3591
 C         0.363337        -1.603356        -0.361272
 C        -0.464538        -0.406537         0.090310
 C        -1.462580         0.280735         0.142699
 C        -2.775680         1.036166         0.237935
 O        -2.569287         2.403972         0.087572
 C        -3.781461         0.815237         1.396570
 C        -4.350659        -0.525621         1.315977
 C        -4.148329        -1.396749         2.496469
 O        -4.889022        -0.884311         0.311834
 H        -0.369652        -2.298862        -0.691499
 H         1.024235        -1.449606        -1.210050
 H         0.929237        -2.064163         0.424899
 H        -3.374035         0.654329        -0.662529
 H        -1.750442         2.635471        -0.436646
 H        -3.314003         1.129381         2.321736
 H        -4.530445         1.559629         1.196531
 H        -3.216376        -1.963557         2.373585
 H        -3.935140        -0.669656         3.244022
 H        -4.967259        -2.053217         2.738607
