19
Iteration:  3897charge 0 multiplicity 1
 C         0.568421        -1.443391         0.313275
 C        -0.609965        -0.523522         0.093575
 C        -1.610973         0.165231        -0.101546
 C        -2.784283         1.014593        -0.102029
 O        -2.441076         2.356300         0.006757
 C        -3.595276         0.750489         1.246717
 C        -4.422787        -0.470537         1.334961
 C        -3.605019        -1.663843         1.807178
 O        -5.560108        -0.536300         0.974054
 H         0.886613        -1.755837        -0.678934
 H         1.394859        -0.875268         0.753362
 H         0.235952        -2.278981         0.925599
 H        -3.563920         0.764158        -0.945383
 H        -3.218388         2.867864        -0.338269
 H        -2.830712         0.737366         2.018212
 H        -4.370892         1.560992         1.372600
 H        -3.310530        -2.216287         0.943463
 H        -2.693130        -1.283847         2.242231
 H        -4.089842        -2.388669         2.434629
