19
Iteration:  2617
 C         0.124161        -1.551420        -0.032604
 C        -0.728434        -0.382447        -0.143364
 C        -1.738116         0.334364        -0.036594
 C        -2.782216         1.298611         0.119892
 O        -2.252745         2.601656         0.349664
 C        -3.764654         0.724955         1.286686
 C        -4.259567        -0.652544         1.247141
 C        -3.967135        -1.584727         2.375115
 O        -4.831294        -1.061074         0.268065
 H         0.609774        -1.596567         0.938952
 H        -0.351074        -2.534670        -0.189489
 H         0.955902        -1.472707        -0.756453
 H        -3.468755         1.471354        -0.748867
 H        -1.518650         2.562786         1.032972
 H        -3.371742         1.075081         2.263907
 H        -4.643268         1.390503         1.008476
 H        -3.286305        -2.398911         2.155166
 H        -3.590966        -1.133775         3.288441
 H        -4.868731        -2.059523         2.826843
