19
Iteration:  4356
 C         0.637443        -1.327478        -0.102313
 C        -0.523948        -0.512296         0.284641
 C        -1.457496         0.248400         0.334236
 C        -2.591898         1.019799         0.014220
 O        -2.405813         2.422317        -0.086909
 C        -3.796953         0.796981         1.010733
 C        -4.378105        -0.620970         1.261269
 C        -3.921879        -1.859425         1.911577
 O        -5.644419        -0.507474         1.046700
 H         1.588566        -0.740134        -0.445327
 H         0.925301        -1.969459         0.757372
 H         0.365078        -2.039546        -0.871617
 H        -3.031245         0.662006        -0.859301
 H        -1.473679         2.634302         0.030031
 H        -3.522427         1.196593         2.066051
 H        -4.637539         1.470839         0.709875
 H        -3.038547        -2.357649         1.422234
 H        -3.477425        -1.713426         2.909270
 H        -4.801779        -2.516411         1.886055
