19
Iteration:  2602
 C         0.199749        -1.529006        -0.103911
 C        -0.755192        -0.471616         0.012505
 C        -1.689727         0.326088        -0.042269
 C        -2.826441         1.206928         0.068738
 O        -2.325891         2.585086         0.441934
 C        -3.766677         0.893351         1.213408
 C        -4.159214        -0.690928         1.171471
 C        -3.909318        -1.548345         2.476184
 O        -4.936975        -1.044300         0.213634
 H         0.712080        -1.782157         0.827517
 H        -0.475421        -2.352513        -0.261819
 H         0.901417        -1.465509        -0.901674
 H        -3.209929         1.264180        -0.910173
 H        -1.734036         2.360422         1.102600
 H        -3.224561         1.051191         2.122678
 H        -4.675851         1.428317         1.492810
 H        -3.344900        -2.449460         2.126476
 H        -3.209578        -0.893999         3.116037
 H        -4.926622        -1.856328         2.744936
