19
Iteration:    14charge 0 multiplicity 1
 C         1.504173         0.211564         0.033911
 C         0.022674         0.069422         0.106696
 C        -1.149901        -0.218172         0.034404
 C        -2.643802        -0.287173         0.097689
 O        -3.297421         0.813305        -0.616121
 C        -3.113898        -0.177895         1.504791
 C        -4.603995        -0.170302         1.461432
 C        -5.466740        -1.239146         0.893228
 O        -5.110302         0.706603         2.188297
 H         2.039116         0.225771         0.970137
 H         1.813985        -0.719481        -0.470597
 H         1.835557         1.081938        -0.593228
 H        -3.060310        -1.255498        -0.322510
 H        -2.458507         1.119523        -1.097014
 H        -2.772047        -1.002656         2.037028
 H        -2.846813         0.800336         1.993662
 H        -4.944534        -2.121975         1.173061
 H        -6.442913        -1.174218         1.335880
 H        -5.520034        -1.339949        -0.204719
