19
Iteration:  2088
 C         0.494718        -1.381470         0.396646
 C        -0.618608        -0.384427         0.214007
 C        -1.637636         0.246786         0.062380
 C        -2.857086         1.148855         0.224235
 O        -2.387413         2.569605         0.209316
 C        -3.781384         0.754889         1.431290
 C        -4.395106        -0.635089         1.096434
 C        -3.652981        -1.806261         1.550041
 O        -5.389459        -0.773793         0.445119
 H         1.430253        -0.755776         0.597515
 H         0.236985        -2.058140         1.236343
 H         0.772868        -1.897371        -0.536815
 H        -3.565978         0.803332        -0.562328
 H        -1.486035         2.278559        -0.062499
 H        -3.064255         0.774626         2.274867
 H        -4.648445         1.414419         1.595067
 H        -2.702305        -1.813781         1.023589
 H        -3.347560        -1.868473         2.579772
 H        -4.120273        -2.723517         1.199991
