19
Iteration:  4610charge 0 multiplicity 1
 C         0.292159        -1.481208        -0.602537
 C        -0.678780        -0.603186         0.299401
 C        -1.565316         0.229693         0.167140
 C        -2.734864         1.120627         0.124497
 O        -2.468192         2.522335         0.049935
 C        -3.663943         0.853494         1.422753
 C        -4.281137        -0.528639         1.386612
 C        -4.328458        -1.369350         2.583524
 O        -4.697860        -1.076116         0.294914
 H         1.261911        -1.069988        -0.379100
 H         0.308055        -2.544888        -0.385017
 H         0.002613        -1.295701        -1.637758
 H        -3.188509         1.039384        -0.940953
 H        -1.614438         2.694901         0.405344
 H        -3.061447         1.080906         2.333087
 H        -4.648261         1.472338         1.344109
 H        -3.344552        -1.525170         2.956471
 H        -4.977830        -1.122431         3.437596
 H        -4.823954        -2.340674         2.283708
