19
Iteration:   882charge 0 multiplicity 1
 C         1.533479         0.102897         0.152195
 C         0.120631         0.019886         0.108222
 C        -1.081655         0.106847        -0.085971
 C        -2.551035         0.411744         0.040387
 O        -2.846155         1.510953         0.803895
 C        -3.351643        -0.852779         0.849094
 C        -4.835474        -0.596437         0.987084
 C        -5.258529        -0.078908         2.474631
 O        -5.570669        -0.988236         0.127781
 H         1.962885         1.044513        -0.249375
 H         1.863536        -0.169763         1.201314
 H         1.967416        -0.690352        -0.530888
 H        -2.946589         0.397783        -1.034588
 H        -3.545201         2.081380         0.277096
 H        -3.148902        -1.877749         0.387856
 H        -2.846390        -0.930246         1.826135
 H        -5.181202         1.018343         2.310946
 H        -6.205450        -0.317880         2.964403
 H        -4.457011        -0.135246         3.146803
