19
Iteration:  2212charge 0 multiplicity 1
 C         0.820563        -1.120671         0.063062
 C        -0.401815        -0.408753         0.177201
 C        -1.482039         0.122786         0.244392
 C        -2.627128         0.970223         0.170887
 O        -2.326448         2.344754         0.310381
 C        -3.901691         0.779837         1.087344
 C        -4.530082        -0.604763         1.095343
 C        -3.923059        -1.692341         1.762165
 O        -5.704776        -0.755220         0.666668
 H         1.709076        -0.572042         0.422679
 H         0.751942        -2.186266         0.358873
 H         1.011135        -1.037108        -1.033783
 H        -3.026129         0.976721        -0.914121
 H        -1.890848         2.694759         1.072539
 H        -3.590106         1.097762         2.077325
 H        -4.701309         1.407858         0.694021
 H        -4.571182        -1.854523         2.687916
 H        -4.098234        -2.707405         1.235145
 H        -2.851852        -1.619317         2.088177
