19
Iteration:  4690charge 0 multiplicity 1
 C         0.564906        -1.319439        -0.700727
 C        -0.610813        -0.597429        -0.204507
 C        -1.519523         0.173151         0.038122
 C        -2.777431         0.991663         0.149894
 O        -2.370064         2.447127         0.422189
 C        -3.654409         0.760066         1.349356
 C        -4.372875        -0.525909         1.401744
 C        -4.868980        -1.075374         2.755673
 O        -4.510633        -1.260874         0.395564
 H         1.550221        -0.949909        -0.365738
 H         0.440920        -2.426210        -0.533778
 H         0.553978        -1.198924        -1.849051
 H        -3.365007         1.080560        -0.854587
 H        -1.980855         2.735219        -0.380354
 H        -3.196504         1.149104         2.310551
 H        -4.561258         1.481915         1.290305
 H        -3.914683        -1.077484         3.364706
 H        -5.546239        -0.426354         3.358242
 H        -5.274497        -2.060741         2.622992
