19
Iteration:  3921charge 0 multiplicity 1
 C         0.513850        -1.291393         0.435076
 C        -0.574925        -0.521002        -0.219502
 C        -1.570514         0.172674        -0.212381
 C        -2.716920         0.981741        -0.126626
 O        -2.341010         2.362519         0.090458
 C        -3.678176         0.737851         1.173441
 C        -4.433668        -0.561546         1.324217
 C        -3.660229        -1.858499         1.866516
 O        -5.574718        -0.436238         1.095252
 H         1.291806        -1.810083        -0.218092
 H         0.965631        -0.537718         1.074456
 H        -0.062654        -1.915189         1.055584
 H        -3.448924         0.843195        -1.000797
 H        -2.891717         2.866691        -0.440938
 H        -3.035053         0.935554         2.036906
 H        -4.490809         1.477959         1.024207
 H        -3.353504        -2.562377         1.188402
 H        -2.809671        -1.509512         2.441306
 H        -4.358245        -2.327916         2.501218
