19
Iteration:   658
 C         1.209810        -0.388384        -0.608142
 C        -0.118047        -0.097493        -0.126101
 C        -1.249774         0.145825         0.266146
 C        -2.565265         0.677427         0.539726
 O        -2.569618         2.005974         0.941769
 C        -3.280070        -0.178691         1.573219
 C        -4.616151        -0.682127         1.040143
 C        -5.855718        -0.425896         1.920268
 O        -4.821949        -1.403901         0.027082
 H         1.689743         0.572734        -0.333061
 H         1.853017        -1.177991        -0.208109
 H         1.165309        -0.508263        -1.715143
 H        -3.208189         0.412313        -0.349243
 H        -3.486198         2.144188         1.036086
 H        -2.812420        -1.135708         1.619252
 H        -3.258695         0.443832         2.565802
 H        -5.994264         0.595960         1.738940
 H        -6.605069        -1.044189         1.438861
 H        -5.630742        -0.395946         2.967525
