19
Iteration:  4758
 C         0.517787        -1.085221        -0.388815
 C        -0.697638        -0.282098        -0.692638
 C        -1.819545         0.108782        -0.383978
 C        -2.835105         0.989874         0.255128
 O        -2.224503         2.340095         0.333885
 C        -3.238738         0.498083         1.591783
 C        -4.357004        -0.699086         1.458567
 C        -5.225791        -0.811014         2.744374
 O        -4.360681        -1.362884         0.422049
 H         1.115481        -0.607339         0.485776
 H         0.132032        -2.091980        -0.068602
 H         1.096197        -1.248604        -1.317760
 H        -3.686800         1.029635        -0.511036
 H        -1.258454         2.241929        -0.010649
 H        -2.347043        -0.050261         2.035756
 H        -3.570767         1.242822         2.299945
 H        -4.646805        -1.007776         3.689225
 H        -5.813014         0.000805         3.099647
 H        -6.037602        -1.608704         2.686633
