19
Iteration:  1202charge 0 multiplicity 1
 C         1.437760        -0.121733        -0.057515
 C        -0.011825        -0.128461         0.078185
 C        -1.221724         0.080769         0.188969
 C        -2.644000         0.460036         0.337983
 O        -2.673212         1.968146        -0.011998
 C        -3.320274        -0.140879         1.519297
 C        -4.713933        -0.693808         1.121747
 C        -5.432578        -1.120432         2.341712
 O        -5.357938        -0.712175         0.056869
 H         1.742264         0.482584        -0.914121
 H         1.881151         0.234988         0.873481
 H         1.817926        -1.137856        -0.188996
 H        -3.318208         0.121118        -0.456283
 H        -2.266524         2.320896         0.882537
 H        -2.529714        -0.686424         1.956121
 H        -3.568362         0.634719         2.271457
 H        -6.262730        -0.526810         2.622150
 H        -5.695096        -2.201582         2.147033
 H        -4.711871        -1.192232         3.210404
