19
Iteration:  1086charge 0 multiplicity 1
 C         1.528835        -0.024949         0.256880
 C         0.111645         0.180371         0.247089
 C        -1.113775         0.150390         0.074409
 C        -2.625031         0.308113        -0.005491
 O        -3.208109         1.505657         0.211293
 C        -3.130509        -0.808022         0.997990
 C        -4.622478        -0.454844         1.153509
 C        -5.259585        -0.689025         2.501635
 O        -5.410784        -0.405213         0.205831
 H         2.026705         0.642212        -0.533655
 H         2.033208         0.112653         1.217399
 H         1.807467        -1.031101        -0.012144
 H        -3.017364        -0.178751        -0.974206
 H        -3.743932         1.900499        -0.584782
 H        -3.073243        -1.755438         0.377598
 H        -2.788998        -0.951835         2.004369
 H        -4.675523        -0.107484         3.338624
 H        -6.285697        -0.294430         2.499257
 H        -5.345652        -1.709311         2.789159
