19
Iteration:  4877
 C         0.634040        -1.208144        -1.113321
 C        -0.289776        -0.302348        -0.428534
 C        -1.253929         0.282724         0.060453
 C        -2.587418         0.936976         0.268024
 O        -2.486939         2.309805         0.326852
 C        -3.456149         0.514253         1.576210
 C        -4.537977        -0.632200         1.599272
 C        -5.597466        -0.761454         2.656850
 O        -4.414370        -1.474119         0.664991
 H         1.547450        -1.180806        -0.611066
 H         0.165833        -2.211860        -1.109244
 H         0.795599        -0.885833        -2.143614
 H        -3.086596         0.537651        -0.714666
 H        -1.637552         2.650465         0.259870
 H        -2.832438         0.443594         2.513281
 H        -3.969985         1.509059         1.531177
 H        -5.224942        -0.470870         3.691872
 H        -6.281859         0.125487         2.378397
 H        -6.235034        -1.686463         2.436774
