19
Iteration:  4843charge 0 multiplicity 1
 C         0.668805        -1.160138        -0.902524
 C        -0.528286        -0.432467        -0.390656
 C        -1.553761         0.203976        -0.053063
 C        -2.743880         1.000438         0.257983
 O        -2.552398         2.373847         0.398319
 C        -3.287014         0.411357         1.655205
 C        -4.407850        -0.653008         1.439508
 C        -5.304083        -0.552714         2.540728
 O        -4.423900        -1.539950         0.561607
 H         1.514211        -0.978334        -0.323509
 H         0.642558        -2.262520        -0.891377
 H         0.948781        -0.900452        -1.949856
 H        -3.629707         0.842183        -0.477314
 H        -1.599819         2.346808         0.457074
 H        -2.437460         0.133444         2.290364
 H        -3.789774         1.305430         2.203345
 H        -4.603576        -0.335569         3.397443
 H        -5.907881         0.339930         2.156684
 H        -5.903441        -1.484785         2.731818
