19
Iteration:  4620charge 0 multiplicity 1
 C         0.272280        -1.408121        -0.622625
 C        -0.625183        -0.593456         0.217533
 C        -1.504387         0.288844         0.250780
 C        -2.763715         1.039900         0.116242
 O        -2.399620         2.536670         0.071955
 C        -3.726802         0.856079         1.394427
 C        -4.299187        -0.564174         1.339626
 C        -4.410543        -1.360792         2.609393
 O        -4.659329        -1.106440         0.352549
 H         1.341960        -1.228887        -0.659217
 H         0.088536        -2.444213        -0.434499
 H        -0.089245        -1.260693        -1.609761
 H        -3.430560         0.509040        -0.707527
 H        -1.506483         2.426189         0.289698
 H        -3.241312         1.134213         2.355939
 H        -4.466640         1.707729         1.264200
 H        -3.448068        -1.492399         3.052570
 H        -5.048472        -0.840193         3.341357
 H        -4.828010        -2.307414         2.166137
