19
Iteration:  2233
 C         0.937208        -1.146224        -0.078345
 C        -0.431341        -0.595764         0.334608
 C        -1.437941         0.172116         0.327141
 C        -2.741192         1.006572         0.174927
 O        -2.399136         2.448448         0.192331
 C        -3.874268         0.816542         1.164160
 C        -4.621433        -0.600958         1.167073
 C        -3.887853        -1.814698         1.841089
 O        -5.692371        -0.673781         0.551913
 H         1.796219        -0.561671         0.378395
 H         0.897029        -2.189806         0.269849
 H         1.236430        -0.986242        -1.140612
 H        -2.974373         0.850821        -0.948474
 H        -1.771079         2.533729         1.050776
 H        -3.538944         1.132935         2.178371
 H        -4.638619         1.488546         0.757092
 H        -4.527299        -2.437109         2.514139
 H        -3.657102        -2.535166         0.976597
 H        -2.985004        -1.547033         2.412637
