19
Iteration:  2018
 C         0.345559        -1.557597         0.306289
 C        -0.641177        -0.449402         0.342170
 C        -1.380915         0.489711         0.244186
 C        -2.701053         1.173737         0.195841
 O        -2.781461         2.684596         0.243245
 C        -3.576043         0.774896         1.355340
 C        -4.290810        -0.674746         1.073880
 C        -3.795002        -1.890852         1.672271
 O        -5.253628        -0.812629         0.291147
 H         1.327392        -1.058413         0.258599
 H         0.303229        -2.280665         1.165280
 H         0.355228        -2.064598        -0.723716
 H        -3.288079         0.910714        -0.758895
 H        -1.963309         2.940570        -0.306632
 H        -2.941465         0.683328         2.293855
 H        -4.362596         1.608401         1.392393
 H        -3.905774        -2.801163         1.059394
 H        -2.708310        -1.793120         1.675568
 H        -4.081680        -2.276071         2.633851
