19
Iteration:  4118charge 0 multiplicity 1
 C         0.783673        -1.234387         0.049001
 C        -0.347559        -0.380102         0.428552
 C        -1.276011         0.398582         0.236276
 C        -2.645565         0.837111         0.044802
 O        -2.648404         2.226258        -0.366996
 C        -3.478219         0.663237         1.313293
 C        -4.533885        -0.531600         1.268246
 C        -4.096898        -1.977811         1.623834
 O        -5.683432        -0.254981         1.196883
 H         1.291360        -1.061984        -0.950454
 H         1.431879        -1.221967         0.914428
 H         0.353225        -2.197392        -0.024198
 H        -2.901312         0.406612        -0.797853
 H        -2.847926         2.248970        -1.362244
 H        -2.906702         0.561751         2.249078
 H        -4.128758         1.484117         1.479266
 H        -3.275938        -2.367682         0.987638
 H        -3.756614        -1.990857         2.705452
 H        -5.116579        -2.487986         1.490808
