19
Iteration:   631
 C         1.212618        -0.441835        -0.656619
 C        -0.083887        -0.060979        -0.110818
 C        -1.206248         0.239783         0.251337
 C        -2.605660         0.645235         0.505099
 O        -2.617682         2.071677         0.960569
 C        -3.376073        -0.254584         1.621045
 C        -4.676998        -0.882132         1.088496
 C        -5.931473        -0.411725         1.981820
 O        -4.695717        -1.304304        -0.043271
 H         1.881646         0.391772        -0.391351
 H         1.765425        -1.319095        -0.301821
 H         1.154039        -0.529259        -1.734235
 H        -3.255927         0.442052        -0.364461
 H        -1.981090         2.344485         0.340065
 H        -2.715016        -1.058407         2.056812
 H        -3.631967         0.468786         2.335248
 H        -6.294441         0.665119         1.745510
 H        -6.662866        -1.243228         1.954238
 H        -5.494183        -0.294586         3.044314
