19
Iteration:  3794charge 0 multiplicity 1
 C         0.426686        -1.699798        -0.145939
 C        -0.425571        -0.517555         0.327427
 C        -1.392944         0.273667         0.217991
 C        -2.707224         1.122408         0.212290
 O        -2.524581         2.407509        -0.139245
 C        -3.860569         0.907641         1.369490
 C        -4.464765        -0.487327         1.309142
 C        -3.516968        -1.517760         2.057215
 O        -5.506924        -0.742886         0.614825
 H        -0.068686        -2.012660        -1.049137
 H         1.463580        -1.394598        -0.319820
 H         0.240839        -2.572008         0.524242
 H        -3.205716         0.484893        -0.695256
 H        -3.128609         2.616138        -0.915940
 H        -3.411196         1.126002         2.378656
 H        -4.719445         1.563099         1.218092
 H        -2.655292        -1.589936         1.263491
 H        -3.084514        -1.095521         3.037806
 H        -3.922019        -2.533452         2.302662
