19
Iteration:  2985
 C         0.605410        -1.341732        -0.633646
 C        -0.243410        -0.102430        -0.352570
 C        -1.406628         0.145166        -0.063521
 C        -2.649306         0.882605         0.268730
 O        -2.628487         2.306113         0.254712
 C        -3.401613         0.520571         1.641423
 C        -4.563130        -0.512332         1.320339
 C        -5.041503        -1.094487         2.715323
 O        -4.697791        -1.079442         0.318884
 H         0.695134        -1.942003         0.288796
 H         0.313305        -1.909621        -1.514438
 H         1.601583        -1.071560        -0.992807
 H        -3.338132         0.621259        -0.647620
 H        -1.901890         2.667959         0.803432
 H        -2.750024         0.403861         2.584704
 H        -3.806352         1.452984         1.994254
 H        -4.779434        -0.454585         3.530552
 H        -6.125527        -1.115476         2.767322
 H        -4.551820        -2.067172         2.755323
