19
Iteration:   112
 C         1.523898         0.184250         0.122243
 C         0.073701         0.033373        -0.013418
 C        -1.137154        -0.127284        -0.046011
 C        -2.599605        -0.134155        -0.090911
 O        -2.971847         1.256752        -0.328359
 C        -3.150541        -0.484182         1.383433
 C        -4.682895        -0.333488         1.500733
 C        -5.631802        -1.546490         1.454538
 O        -5.202935         0.782420         1.619814
 H         1.890541         0.364890         1.106005
 H         1.925165        -0.779976        -0.182466
 H         1.961762         0.922637        -0.583774
 H        -2.955117        -0.866908        -0.763242
 H        -3.868498         1.372986        -0.640405
 H        -2.931734        -1.432805         1.738947
 H        -2.682459         0.332900         2.020492
 H        -5.557981        -2.058507         2.376856
 H        -6.624935        -1.092274         1.377384
 H        -5.388725        -2.286357         0.701404
