19
Iteration:  3381charge 0 multiplicity 1
 C         0.478746        -1.369382        -0.487265
 C        -0.649769        -0.406981        -0.296167
 C        -1.680242         0.205848        -0.159528
 C        -2.856612         1.096989         0.075604
 O        -2.328812         2.352318         0.565800
 C        -3.714758         0.668436         1.334053
 C        -4.266572        -0.652021         1.402805
 C        -4.760428        -1.009207         2.717665
 O        -4.418400        -1.249424         0.290861
 H         0.311999        -2.307765        -0.028884
 H         0.745585        -1.449898        -1.526709
 H         1.330711        -0.827910        -0.054627
 H        -3.623201         1.241148        -0.767460
 H        -1.485701         2.427950         0.208820
 H        -3.118297         0.858988         2.262415
 H        -4.536005         1.308645         1.409881
 H        -3.860009        -1.356510         3.273965
 H        -5.014824        -0.093742         3.288763
 H        -5.654575        -1.683322         2.691179
