19
Iteration:  4584
 C         0.338193        -1.512622        -0.303427
 C        -0.830963        -0.637373        -0.044075
 C        -1.664755         0.233773         0.132442
 C        -2.802259         1.067600         0.149609
 O        -2.474690         2.586756         0.031298
 C        -3.595590         0.813888         1.495366
 C        -4.231631        -0.612282         1.283135
 C        -4.128227        -1.413171         2.582159
 O        -4.767709        -0.904503         0.234748
 H         1.297057        -1.047363         0.003229
 H         0.228293        -2.439687         0.255117
 H         0.329034        -1.749139        -1.348226
 H        -3.373997         0.971215        -0.801428
 H        -2.099303         2.737341         0.872552
 H        -2.950957         0.931972         2.380584
 H        -4.426655         1.460661         1.483457
 H        -3.085383        -1.658056         2.946449
 H        -4.651414        -0.874135         3.372717
 H        -4.678713        -2.335004         2.530832
