19
Iteration:  2295
 C         0.684127        -1.141011         0.038780
 C        -0.441384        -0.281709         0.230865
 C        -1.590320         0.067141         0.206875
 C        -2.744250         0.907278         0.272368
 O        -2.449639         2.346442        -0.015783
 C        -3.768863         0.782152         1.477947
 C        -4.527044        -0.539822         1.236291
 C        -3.877525        -1.957335         1.788535
 O        -5.443676        -0.511518         0.429986
 H         1.510740        -0.828056         0.757338
 H         0.393561        -2.134576         0.394117
 H         1.115511        -1.253822        -0.956644
 H        -3.381909         0.738076        -0.573012
 H        -1.643233         2.775409         0.492858
 H        -3.164417         0.769512         2.434993
 H        -4.493266         1.612797         1.408513
 H        -4.102450        -2.846409         1.168693
 H        -2.799553        -1.789153         1.881817
 H        -4.259904        -2.240602         2.853782
