19
Iteration:  2360charge 0 multiplicity 1
 C         0.611317        -1.207040         0.280652
 C        -0.700508        -0.558453         0.031121
 C        -1.573344         0.272077        -0.105812
 C        -2.792490         1.137906         0.118492
 O        -2.510195         2.633439         0.039570
 C        -3.546746         0.507173         1.438358
 C        -4.385943        -0.734958         1.231117
 C        -3.963737        -1.904964         1.918523
 O        -5.313646        -0.556773         0.521143
 H         0.903259        -0.646756         1.167165
 H         0.515491        -2.180132         0.707578
 H         1.366576        -1.165059        -0.471520
 H        -3.427409         0.940345        -0.699551
 H        -1.666377         2.758946         0.522835
 H        -2.781850         0.424618         2.260011
 H        -4.142768         1.315177         1.799675
 H        -2.945420        -2.115916         1.569242
 H        -3.979775        -1.780327         2.974835
 H        -4.742363        -2.712811         1.748648
