19
Iteration:  1397charge 0 multiplicity 1
 C         0.912703        -0.993591         0.061720
 C        -0.226243        -0.064277        -0.108018
 C        -1.278389         0.583644        -0.047364
 C        -2.742135         1.035416         0.298517
 O        -2.788658         2.385794         0.611870
 C        -3.364362         0.314987         1.394301
 C        -4.520349        -0.815320         1.075590
 C        -5.279740        -1.316038         2.274152
 O        -4.668218        -1.344976        -0.037873
 H         1.654883        -0.890037        -0.736672
 H         1.397977        -0.680846         1.035043
 H         0.512311        -2.074702         0.050135
 H        -3.333844         0.906435        -0.610106
 H        -2.676570         2.859282        -0.305176
 H        -2.494178        -0.199253         1.885416
 H        -3.686757         1.127201         2.110533
 H        -4.725407        -2.190649         2.642374
 H        -5.412106        -0.496069         2.987782
 H        -6.209510        -1.774366         1.874425
