19
Iteration:  1971charge 0 multiplicity 1
 C         0.357718        -1.392442         0.281087
 C        -0.585149        -0.317809         0.203256
 C        -1.610744         0.336094         0.139124
 C        -2.784982         1.169176         0.267731
 O        -2.494616         2.554372         0.395651
 C        -3.760102         0.671219         1.334816
 C        -4.310348        -0.653342         1.025154
 C        -3.738621        -1.837545         1.862090
 O        -5.136078        -0.787543         0.131957
 H         1.442922        -1.243590         0.194169
 H         0.085562        -1.879968         1.225513
 H         0.135109        -2.089330        -0.546657
 H        -3.397227         1.084229        -0.700416
 H        -2.177196         2.834208        -0.420491
 H        -3.405672         0.766432         2.372714
 H        -4.683623         1.263477         1.132008
 H        -4.618934        -2.497028         2.201476
 H        -3.016441        -2.590533         1.368398
 H        -3.368500        -1.416096         2.884869
