19
Iteration:  2159charge 0 multiplicity 1
 C         0.749754        -1.132294         0.262688
 C        -0.558594        -0.469850         0.148235
 C        -1.589229         0.191299        -0.079644
 C        -2.735020         1.046243         0.092696
 O        -2.187183         2.403150         0.428685
 C        -3.856089         0.844554         1.131137
 C        -4.577831        -0.647544         1.082702
 C        -3.797116        -1.780601         1.749414
 O        -5.677352        -0.829996         0.648964
 H         1.405257        -0.396477         0.606663
 H         0.545187        -1.910786         0.987598
 H         1.309495        -1.357489        -0.639618
 H        -3.276266         1.296234        -0.835005
 H        -1.324020         2.400350         0.918672
 H        -3.552936         1.007157         2.147836
 H        -4.636774         1.566437         0.836724
 H        -2.953282        -1.470051         2.462232
 H        -4.577636        -2.550960         2.153209
 H        -3.042690        -2.189385         0.993707
