19
Iteration:  1207charge 0 multiplicity 1
 C         1.474919        -0.139428        -0.116309
 C        -0.032820        -0.135938         0.118170
 C        -1.231541         0.065297         0.207414
 C        -2.637459         0.488265         0.340460
 O        -2.701992         1.976061         0.019492
 C        -3.391888        -0.092710         1.523313
 C        -4.705297        -0.669654         1.086459
 C        -5.398505        -1.167321         2.342717
 O        -5.337234        -0.734100         0.053873
 H         1.962557         0.417254        -0.986277
 H         1.929107         0.132826         0.863069
 H         1.921257        -1.151593        -0.196608
 H        -3.182960         0.217614        -0.588750
 H        -2.158465         2.414029         0.646724
 H        -2.665874        -0.793663         2.101314
 H        -3.539202         0.690903         2.274638
 H        -6.306876        -0.510184         2.563686
 H        -5.644013        -2.207041         2.306836
 H        -4.907634        -1.093498         3.302368
