19
Iteration:  2463charge 0 multiplicity 1
 C         0.477789        -1.378583        -0.013955
 C        -0.864448        -0.708096         0.086781
 C        -1.602430         0.234685         0.207394
 C        -2.805535         1.162353         0.139001
 O        -2.476969         2.600731         0.244430
 C        -3.732179         0.897351         1.307185
 C        -4.306673        -0.612627         1.170405
 C        -3.734664        -1.702669         2.063149
 O        -5.186944        -0.864179         0.347802
 H         0.984376        -1.083055         0.949596
 H         0.382262        -2.499691         0.000377
 H         1.175522        -1.031694        -0.828905
 H        -3.305814         0.889999        -0.849963
 H        -1.490950         2.659745         0.541530
 H        -3.221936         0.921816         2.278346
 H        -4.628318         1.625386         1.179026
 H        -3.958470        -1.517798         3.112737
 H        -4.118490        -2.724570         1.935731
 H        -2.675332        -1.539411         2.194001
