19
Iteration:  4375
 C         0.446457        -1.395786        -0.082079
 C        -0.565253        -0.495145         0.465733
 C        -1.484233         0.284500         0.304011
 C        -2.681743         0.980476        -0.072934
 O        -2.428626         2.453352        -0.031795
 C        -3.647160         0.755648         1.030515
 C        -4.401401        -0.575489         1.274846
 C        -3.746930        -1.794257         1.894458
 O        -5.635112        -0.545224         0.943308
 H         1.294174        -0.844015        -0.423194
 H         0.915476        -2.125241         0.549646
 H         0.036743        -1.867743        -0.993136
 H        -2.889077         0.751727        -1.161286
 H        -1.424344         2.603796        -0.047639
 H        -3.195274         1.008480         2.029340
 H        -4.442843         1.463808         0.889958
 H        -2.854773        -2.133952         1.357245
 H        -3.317448        -1.663297         2.878913
 H        -4.446812        -2.637873         2.097291
