19
Iteration:  4297charge 0 multiplicity 1
 C         0.955335        -1.101807         0.082774
 C        -0.363094        -0.401746         0.000752
 C        -1.528392        -0.025985         0.013272
 C        -2.802214         0.709964         0.057938
 O        -2.338303         2.126891         0.021783
 C        -3.728250         0.782002         1.256952
 C        -4.657772        -0.475331         1.309080
 C        -3.813206        -1.607835         1.701895
 O        -5.911545        -0.379090         1.079464
 H         1.731623        -0.518374        -0.293860
 H         1.216225        -1.354590         1.114456
 H         0.935492        -2.070362        -0.500302
 H        -3.254364         0.551508        -0.850070
 H        -1.366433         2.218583         0.373894
 H        -3.187136         0.679920         2.196353
 H        -4.255106         1.745211         1.165269
 H        -2.931103        -1.680486         1.074962
 H        -3.642406        -1.310714         2.765789
 H        -4.316842        -2.581836         1.788690
