19
Iteration:  3210
 C         0.634885        -1.195896        -0.619318
 C        -0.522995        -0.337193        -0.473262
 C        -1.599969         0.153098        -0.184077
 C        -2.785681         0.988912         0.181441
 O        -2.317559         2.373740         0.474581
 C        -3.482960         0.540967         1.494267
 C        -4.422332        -0.564388         1.457391
 C        -5.270774        -0.955512         2.716870
 O        -4.388323        -1.323791         0.434941
 H         0.738399        -2.059599         0.084036
 H         0.543281        -1.649161        -1.656473
 H         1.584701        -0.605309        -0.565071
 H        -3.621113         0.897810        -0.619822
 H        -1.829996         2.695336        -0.349640
 H        -2.727394         0.165930         2.189043
 H        -3.903379         1.437904         2.080979
 H        -4.501032        -0.983214         3.469062
 H        -6.013824        -0.193737         2.882337
 H        -5.827732        -1.895540         2.568910
