19
Iteration:  3536
 C         0.271347        -1.570033        -0.290273
 C        -0.637266        -0.526194        -0.011179
 C        -1.364596         0.475695         0.185901
 C        -2.663133         1.127715         0.218649
 O        -2.570481         2.663771         0.022164
 C        -3.518515         0.689046         1.393697
 C        -4.141789        -0.713840         1.247096
 C        -4.361236        -1.477744         2.642323
 O        -4.985397        -0.973913         0.304524
 H        -0.317679        -2.422457        -0.457704
 H         0.729880        -1.383822        -1.250115
 H         1.004202        -1.986903         0.354323
 H        -3.221193         0.714282        -0.716052
 H        -2.062850         2.831201        -0.875752
 H        -2.829714         0.752271         2.242660
 H        -4.373699         1.298512         1.537995
 H        -3.419905        -1.793426         3.110384
 H        -4.804702        -0.639429         3.122828
 H        -5.098975        -2.265677         2.579688
