19
Iteration:  1112
 C         1.490771        -0.030699         0.222159
 C         0.086187         0.135865         0.050189
 C        -1.148487         0.213204         0.142946
 C        -2.630478         0.212876        -0.042474
 O        -3.112630         1.612229         0.206514
 C        -3.196123        -0.653813         1.120036
 C        -4.767766        -0.588500         1.175830
 C        -5.319382        -0.825016         2.533062
 O        -5.291781        -0.397783         0.131897
 H         2.198440         0.470448        -0.376135
 H         1.677331         0.131164         1.297909
 H         1.770039        -1.115110         0.162691
 H        -2.993579        -0.158327        -1.058920
 H        -2.658657         2.216676        -0.482013
 H        -2.807300        -1.665987         1.234206
 H        -2.974248        -0.064039         2.048874
 H        -4.718886        -0.125923         3.147688
 H        -6.397419        -0.647747         2.707835
 H        -5.102157        -1.862955         2.978195
