19
Iteration:  1957
 C         0.417793        -1.427493         0.278874
 C        -0.584167        -0.355797         0.160440
 C        -1.623457         0.297301         0.098073
 C        -2.851491         1.166730         0.139866
 O        -2.463894         2.530540         0.498532
 C        -3.904851         0.827535         1.376103
 C        -4.286957        -0.671266         1.054162
 C        -3.819353        -1.796298         1.901003
 O        -5.062763        -0.877633         0.120784
 H         1.359644        -0.849020         0.200908
 H         0.478129        -1.953982         1.214785
 H         0.368924        -2.170858        -0.481074
 H        -3.373827         1.064488        -0.822848
 H        -1.940102         3.005272        -0.268173
 H        -3.268715         0.868167         2.242720
 H        -4.626313         1.590027         1.516914
 H        -4.717275        -2.377512         2.160642
 H        -3.258466        -2.407239         1.066836
 H        -3.052825        -1.508040         2.673193
