19
Iteration:  4841
 C         0.662951        -1.160302        -0.891591
 C        -0.550899        -0.432254        -0.386774
 C        -1.571881         0.186830        -0.067454
 C        -2.751504         0.996609         0.275417
 O        -2.550377         2.377940         0.398416
 C        -3.269993         0.412248         1.629256
 C        -4.396270        -0.640097         1.432874
 C        -5.297571        -0.567732         2.538910
 O        -4.418663        -1.540013         0.557376
 H         1.537917        -0.914026        -0.262713
 H         0.652285        -2.262874        -0.856484
 H         0.993176        -0.883729        -1.941317
 H        -3.605371         0.873368        -0.424911
 H        -1.624915         2.373511         0.466984
 H        -2.451797         0.088042         2.234907
 H        -3.737198         1.272151         2.267542
 H        -4.648293        -0.301370         3.413593
 H        -5.870550         0.404063         2.163448
 H        -5.898997        -1.443108         2.796369
