19
Iteration:  2783
 C         0.428749        -1.553405        -0.412507
 C        -0.508095        -0.444132        -0.034241
 C        -1.519327         0.278941         0.153044
 C        -2.769823         1.075833         0.147366
 O        -2.522064         2.509792         0.218366
 C        -3.572825         0.748134         1.422908
 C        -4.383455        -0.583713         1.321632
 C        -4.304807        -1.472993         2.572421
 O        -4.951899        -0.883509         0.195668
 H         0.954773        -2.081253         0.347736
 H        -0.118350        -2.263047        -1.034926
 H         1.157552        -1.037680        -1.044801
 H        -3.277853         0.941666        -0.831243
 H        -1.890681         2.707986         1.003699
 H        -2.817830         0.623849         2.228213
 H        -4.285861         1.547754         1.622857
 H        -4.667776        -0.789583         3.414479
 H        -4.952950        -2.331266         2.336589
 H        -3.241164        -1.729296         2.788199
