19
Iteration:  4585
 C         0.337499        -1.507011        -0.313873
 C        -0.826037        -0.642606        -0.028613
 C        -1.667644         0.230722         0.133371
 C        -2.789803         1.066585         0.156117
 O        -2.476920         2.592873         0.028222
 C        -3.595802         0.814547         1.484335
 C        -4.228741        -0.611513         1.294143
 C        -4.133176        -1.417932         2.588077
 O        -4.767374        -0.908534         0.228762
 H         1.304159        -1.051602        -0.018603
 H         0.215019        -2.431702         0.214330
 H         0.287572        -1.718346        -1.336974
 H        -3.390533         0.962332        -0.816979
 H        -2.085403         2.717577         0.872018
 H        -2.952758         0.919384         2.384902
 H        -4.426101         1.503670         1.459445
 H        -3.094800        -1.626627         2.944572
 H        -4.667393        -0.893356         3.375558
 H        -4.709095        -2.332990         2.542247
