19
Iteration:  1842charge 0 multiplicity 1
 C         0.585985        -1.190680        -0.065394
 C        -0.631922        -0.390655         0.072800
 C        -1.617031         0.267816         0.246046
 C        -2.806141         1.178303         0.280199
 O        -2.290223         2.469727         0.662950
 C        -4.034235         0.773669         1.078185
 C        -4.346196        -0.787442         1.028360
 C        -4.121442        -1.596588         2.233952
 O        -4.894281        -1.015941        -0.045881
 H         1.458848        -0.729177        -0.563963
 H         0.858506        -1.598867         0.954448
 H         0.139362        -2.128265        -0.580707
 H        -3.222600         1.358217        -0.693852
 H        -1.853800         2.259582         1.587939
 H        -4.119962         1.107910         2.143114
 H        -4.803439         1.457118         0.560748
 H        -3.675534        -1.213820         3.147452
 H        -4.970872        -2.174567         2.515910
 H        -3.477198        -2.462728         2.069680
