19
Iteration:  3420charge 0 multiplicity 1
 C         0.442049        -1.186754        -0.282076
 C        -0.918051        -0.510054        -0.188637
 C        -1.998235         0.099988        -0.298855
 C        -2.856921         1.237173         0.084897
 O        -2.013972         2.384939         0.457526
 C        -3.569904         0.720695         1.317574
 C        -4.349099        -0.570892         1.353154
 C        -4.640920        -1.236325         2.649549
 O        -4.458243        -1.295492         0.335884
 H         0.490967        -2.254212         0.158917
 H         0.859813        -1.094590        -1.325511
 H         1.088450        -0.714048         0.487516
 H        -3.493436         1.529778        -0.712666
 H        -1.651539         2.715645        -0.438853
 H        -2.884167         0.612886         2.162522
 H        -4.330531         1.505420         1.774505
 H        -3.688951        -1.428651         3.170158
 H        -5.309069        -0.567319         3.231973
 H        -5.090674        -2.213980         2.675579
