19
Iteration:  3885charge 0 multiplicity 1
 C         0.508400        -1.434410         0.175186
 C        -0.630320        -0.551686         0.286739
 C        -1.596933         0.119909        -0.043385
 C        -2.762885         1.012671        -0.022545
 O        -2.435969         2.438512        -0.136517
 C        -3.602564         0.834080         1.361125
 C        -4.412967        -0.488462         1.342822
 C        -3.588557        -1.641727         1.746227
 O        -5.555603        -0.651763         0.934378
 H         0.778678        -1.849127        -0.759326
 H         1.394827        -0.996219         0.661877
 H         0.362899        -2.327298         0.837143
 H        -3.370248         0.777118        -1.015456
 H        -3.244179         2.875700        -0.253572
 H        -2.886458         0.891401         2.192520
 H        -4.088813         1.836879         1.393707
 H        -3.291973        -2.189569         0.840641
 H        -2.729851        -1.426802         2.360709
 H        -4.328300        -2.187234         2.346158
