19
Iteration:  1782charge 0 multiplicity 1
 C         0.443549        -1.239851        -0.135705
 C        -0.607792        -0.371931         0.240526
 C        -1.502735         0.391032         0.238897
 C        -2.702005         1.186873         0.282119
 O        -2.444750         2.617455         0.609287
 C        -3.885149         0.621534         1.207750
 C        -4.345821        -0.806903         1.012581
 C        -4.312841        -1.636043         2.268461
 O        -4.756969        -1.077628        -0.146249
 H         1.180718        -0.905254        -0.885304
 H         1.033095        -1.723060         0.613291
 H        -0.048884        -2.091497        -0.551027
 H        -3.150358         1.213650        -0.760932
 H        -1.926155         2.722447         1.432645
 H        -3.553425         0.944700         2.183322
 H        -4.776328         1.123538         0.943093
 H        -3.322087        -1.977530         2.543276
 H        -4.537333        -1.038040         3.168991
 H        -4.986053        -2.451955         2.032804
