19
Iteration:   969
 C         1.430548         0.269131         0.447030
 C         0.051997         0.101579         0.137093
 C        -1.110386        -0.041975        -0.152366
 C        -2.576784         0.110515        -0.137239
 O        -2.999677         1.428577         0.497518
 C        -3.192412        -0.916677         0.764903
 C        -4.718484        -0.548158         1.057494
 C        -5.080388        -0.251817         2.492304
 O        -5.680727        -0.532225         0.265099
 H         1.790284         1.184366        -0.027848
 H         1.599352         0.303328         1.542445
 H         2.042465        -0.570187         0.057121
 H        -3.134184         0.043197        -1.083498
 H        -2.300071         1.431271         1.250506
 H        -3.165511        -1.879857         0.167086
 H        -2.588446        -0.918544         1.704155
 H        -4.773165         0.819534         2.764482
 H        -6.152527        -0.325632         2.643549
 H        -4.391844        -0.942499         2.969391
