19
Iteration:  2106charge 0 multiplicity 1
 C         0.540052        -1.230166         0.390392
 C        -0.712265        -0.465629         0.178769
 C        -1.676686         0.226475         0.080664
 C        -2.826665         1.148753         0.121289
 O        -2.314518         2.461168         0.283435
 C        -3.797259         0.749208         1.329160
 C        -4.419342        -0.601691         1.063792
 C        -3.553778        -1.910102         1.593439
 O        -5.456604        -0.711051         0.516466
 H         1.396763        -0.632753         0.721481
 H         0.383224        -2.014392         1.166914
 H         0.732774        -1.795265        -0.555055
 H        -3.489949         1.206619        -0.799732
 H        -1.333521         2.578397         0.165961
 H        -3.397586         0.739362         2.381878
 H        -4.581479         1.536853         1.321621
 H        -2.508434        -1.751468         1.409042
 H        -3.881361        -1.828904         2.618940
 H        -3.931932        -2.844222         1.197503
