19
Iteration:  1736
 C         0.417436        -1.329862        -0.019979
 C        -0.641652        -0.280188         0.076513
 C        -1.654227         0.343117         0.222659
 C        -2.817077         1.218369         0.372199
 O        -2.525841         2.634862         0.445149
 C        -3.770068         0.687973         1.411424
 C        -4.259770        -0.678912         1.051970
 C        -4.444680        -1.783150         2.062706
 O        -4.485072        -1.042368        -0.057390
 H         1.219598        -1.105098        -0.650963
 H         0.934880        -1.414867         0.940302
 H         0.074042        -2.359527        -0.236246
 H        -3.465281         1.088993        -0.543991
 H        -1.576382         2.653707         0.839451
 H        -3.451827         0.458494         2.409382
 H        -4.460999         1.502228         1.392092
 H        -3.847396        -2.694056         1.846584
 H        -3.951294        -1.531004         3.026492
 H        -5.525553        -2.006758         2.142915
