19
Iteration:  4422
 C         0.421223        -1.618401         0.146449
 C        -0.594372        -0.603895        -0.033412
 C        -1.518857         0.204835         0.238778
 C        -2.808781         1.108161         0.147144
 O        -2.474478         2.465760         0.021273
 C        -3.807720         0.951732         1.335988
 C        -4.410676        -0.482284         1.262441
 C        -3.463729        -1.615374         1.778203
 O        -5.490759        -0.728506         0.766132
 H         1.568593        -1.384158         0.200859
 H         0.183274        -1.989323         1.165049
 H         0.249387        -2.434600        -0.518194
 H        -3.294008         0.781616        -0.807800
 H        -1.757128         2.592702        -0.670709
 H        -3.368420         1.346155         2.341776
 H        -4.668858         1.651914         1.010820
 H        -2.590414        -1.523223         1.036749
 H        -3.045524        -1.403799         2.793811
 H        -3.941452        -2.571653         1.867439
