19
Iteration:   300
 C         1.359348        -0.485570        -0.029234
 C        -0.021783        -0.253208         0.148101
 C        -1.138635         0.224364         0.046262
 C        -2.555640         0.483113         0.072741
 O        -2.951107         1.915292         0.007657
 C        -3.253968        -0.049556         1.490888
 C        -4.677778        -0.553226         1.260307
 C        -5.172608        -1.790211         1.907773
 O        -5.501152         0.157280         0.723901
 H         1.844017        -0.007317         0.823986
 H         1.697223        -1.517236        -0.077404
 H         1.643807        -0.042758        -0.988502
 H        -3.191444        -0.021859        -0.723899
 H        -2.015936         2.403868        -0.074962
 H        -2.631832        -0.990849         1.734579
 H        -3.026677         0.731089         2.237304
 H        -4.558231        -2.037730         2.789030
 H        -6.250849        -1.693179         2.014203
 H        -5.045543        -2.683185         1.318736
