19
Iteration:  2349
 C         0.607583        -1.161674         0.299889
 C        -0.718089        -0.621185         0.020319
 C        -1.566592         0.302415        -0.005050
 C        -2.741665         1.090297         0.138845
 O        -2.562306         2.514130         0.054574
 C        -3.454795         0.570697         1.421489
 C        -4.381431        -0.605338         1.274460
 C        -3.985696        -1.940226         1.896038
 O        -5.360831        -0.560468         0.471592
 H         1.147622        -0.493945         1.002679
 H         0.720177        -2.191958         0.553549
 H         1.147398        -1.018684        -0.621660
 H        -3.502035         1.021460        -0.586255
 H        -1.663600         2.849805         0.474033
 H        -2.752971         0.555397         2.293720
 H        -4.324529         1.215430         1.538256
 H        -3.122788        -2.177806         1.248060
 H        -3.517032        -1.685130         2.825667
 H        -4.776630        -2.752617         1.807995
