19
Iteration:  2714
 C         0.208446        -1.560588        -0.130159
 C        -0.823925        -0.526419         0.008717
 C        -1.698979         0.292967         0.005704
 C        -2.836729         1.194488         0.111627
 O        -2.509919         2.615967         0.207564
 C        -3.428093         0.705811         1.537968
 C        -4.245546        -0.598818         1.278469
 C        -4.202860        -1.554155         2.363121
 O        -4.670007        -0.853456         0.195010
 H         0.779918        -1.858327         0.724527
 H        -0.229903        -2.452565        -0.551533
 H         0.879603        -1.127589        -0.854173
 H        -3.553441         0.961581        -0.623310
 H        -1.509053         2.624203         0.288593
 H        -2.676502         0.774040         2.282154
 H        -4.237815         1.475059         1.749318
 H        -3.500834        -1.306684         3.209467
 H        -5.202506        -1.959494         2.775109
 H        -3.813179        -2.566928         1.955066
