19
Iteration:  4628charge 0 multiplicity 1
 C         0.228069        -1.374311        -0.636320
 C        -0.600433        -0.518627         0.095955
 C        -1.472326         0.280558         0.316181
 C        -2.763116         1.022251         0.231340
 O        -2.366612         2.462621         0.071695
 C        -3.744466         0.876374         1.316107
 C        -4.304585        -0.549674         1.385178
 C        -4.474792        -1.355349         2.641548
 O        -4.642714        -1.128766         0.307035
 H         1.355350        -1.244233        -0.593740
 H         0.062383        -2.416054        -0.353051
 H        -0.059756        -1.237284        -1.665559
 H        -3.308001         0.704961        -0.710748
 H        -1.436711         2.526578         0.131062
 H        -3.246717         0.976590         2.281464
 H        -4.487672         1.598972         1.147200
 H        -3.492086        -1.539405         3.175350
 H        -5.098377        -0.705992         3.262517
 H        -4.821271        -2.395946         2.579370
