19
Iteration:  4257
 C         0.833298        -0.766910         0.137178
 C        -0.616768        -0.640875         0.174017
 C        -1.712369        -0.121714         0.026379
 C        -2.744046         0.896728        -0.030877
 O        -2.132573         2.230200        -0.213879
 C        -3.619338         0.753124         1.316824
 C        -4.479484        -0.481509         1.426190
 C        -4.099311        -1.982477         1.666112
 O        -5.695968        -0.328087         1.124430
 H         1.429421         0.061076        -0.399211
 H         1.187433        -0.751293         1.182455
 H         1.226585        -1.687782        -0.333954
 H        -3.483519         0.737313        -0.915305
 H        -1.292266         2.143208         0.158644
 H        -2.755045         0.908016         2.062404
 H        -4.312999         1.587428         1.319206
 H        -3.114208        -2.219169         1.191675
 H        -3.772952        -2.183609         2.689505
 H        -4.906961        -2.709735         1.413457
