19
Iteration:  4722
 C         0.572246        -1.163914        -0.551118
 C        -0.717359        -0.561909        -0.301466
 C        -1.720426         0.141128        -0.264234
 C        -2.773605         1.081036         0.102035
 O        -2.286609         2.431859         0.437732
 C        -3.399850         0.658830         1.451657
 C        -4.283159        -0.591956         1.380097
 C        -5.069705        -0.986426         2.825445
 O        -4.507269        -1.381814         0.423671
 H         1.417797        -0.768720        -0.045440
 H         0.562033        -2.250512        -0.369974
 H         0.793249        -1.054899        -1.647798
 H        -3.572627         1.068360        -0.762006
 H        -1.652435         2.560879        -0.363435
 H        -2.556665         0.681133         2.157377
 H        -4.208257         1.403676         1.800373
 H        -4.339607        -1.269652         3.609151
 H        -5.639057        -0.086546         3.077200
 H        -5.656481        -1.840902         2.568263
