19
Iteration:  3652
 C         0.458939        -1.166583        -0.049147
 C        -0.984134        -0.751896        -0.099047
 C        -1.886453         0.052852        -0.260837
 C        -2.815143         1.107600         0.146446
 O        -2.136190         2.338684         0.029411
 C        -3.693963         0.913367         1.404230
 C        -4.302588        -0.488716         1.387667
 C        -3.965360        -1.522589         2.473592
 O        -4.991775        -0.890783         0.400460
 H         0.781269        -2.135424        -0.504653
 H         0.983351        -0.258095        -0.416410
 H         0.722295        -1.330884         1.070620
 H        -3.521580         1.305280        -0.676913
 H        -1.602931         2.555837         0.878720
 H        -3.115737         0.957399         2.375976
 H        -4.537621         1.658755         1.376360
 H        -2.864051        -1.763263         2.574214
 H        -4.280103        -1.241132         3.532523
 H        -4.534685        -2.464252         2.367534
