19
Iteration:  4326charge 0 multiplicity 1
 C         0.893892        -1.291649        -0.029407
 C        -0.361620        -0.511312         0.012441
 C        -1.370993         0.149733         0.199639
 C        -2.601217         0.948899         0.086327
 O        -2.357872         2.342759        -0.086060
 C        -3.852610         0.851594         1.195276
 C        -4.704306        -0.546162         1.356084
 C        -3.919312        -1.681477         1.809397
 O        -5.862550        -0.587796         1.074737
 H         1.873317        -0.812567        -0.298768
 H         1.068809        -1.654457         1.013629
 H         0.844473        -2.163820        -0.680676
 H        -3.052703         0.572210        -0.987202
 H        -1.464500         2.665570         0.066664
 H        -3.451681         0.917822         2.187727
 H        -4.539100         1.687138         0.955418
 H        -3.034238        -1.876921         1.151829
 H        -3.495638        -1.688355         2.847416
 H        -4.541237        -2.562414         1.898260
