19
Iteration:   217charge 0 multiplicity 1
 C         1.544562        -0.202949         0.078851
 C         0.112899        -0.019390         0.029013
 C        -1.093603         0.054808        -0.067277
 C        -2.560030         0.253026         0.043113
 O        -3.075693         1.511477        -0.169946
 C        -3.213259        -0.348928         1.391150
 C        -4.775111        -0.358959         1.469902
 C        -5.329643        -1.748204         1.736899
 O        -5.470201         0.566219         1.086913
 H         2.059182         0.074398         1.059425
 H         1.689833        -1.315309        -0.085364
 H         2.045211         0.261793        -0.805308
 H        -2.973123        -0.373152        -0.830352
 H        -2.304256         2.161338         0.061960
 H        -2.804736        -1.394402         1.671477
 H        -2.713683         0.328895         2.097539
 H        -5.146160        -2.180232         2.803552
 H        -6.439102        -1.606956         1.777171
 H        -5.212546        -2.536698         0.924105
