19
Iteration:  4686
 C         0.550796        -1.332705        -0.715008
 C        -0.604175        -0.570848        -0.224988
 C        -1.496195         0.179575         0.091797
 C        -2.777591         0.988472         0.184421
 O        -2.378478         2.410520         0.396319
 C        -3.664045         0.802605         1.372911
 C        -4.368835        -0.513987         1.385700
 C        -4.825570        -1.059557         2.750443
 O        -4.522885        -1.279560         0.364916
 H         1.489379        -1.001239        -0.338772
 H         0.380113        -2.368112        -0.494101
 H         0.501332        -1.252276        -1.778374
 H        -3.400704         1.036996        -0.733918
 H        -1.906292         2.856806        -0.395744
 H        -3.375628         1.092986         2.386891
 H        -4.537018         1.493200         1.140510
 H        -3.941394        -1.099687         3.352449
 H        -5.547108        -0.540756         3.411398
 H        -5.266188        -2.067693         2.646073
