19
Iteration:   970charge 0 multiplicity 1
 C         1.435411         0.275726         0.441947
 C         0.050227         0.095927         0.143488
 C        -1.112974        -0.036271        -0.146986
 C        -2.575922         0.107682        -0.147771
 O        -3.003734         1.424238         0.496437
 C        -3.191077        -0.917323         0.755061
 C        -4.719296        -0.553536         1.055847
 C        -5.085857        -0.248530         2.494321
 O        -5.677471        -0.527374         0.269529
 H         1.820102         1.177179        -0.019404
 H         1.580958         0.289968         1.550969
 H         2.047020        -0.591206         0.058429
 H        -3.143519         0.081668        -1.071220
 H        -2.263007         1.457410         1.232840
 H        -3.140884        -1.895278         0.212981
 H        -2.618107        -0.907300         1.724544
 H        -4.768893         0.778765         2.775506
 H        -6.136640        -0.323297         2.649401
 H        -4.395334        -0.943924         2.978767
