19
Iteration:  3608charge 0 multiplicity 1
 C         0.375989        -1.462164        -0.305053
 C        -0.625417        -0.501242         0.049130
 C        -1.666944         0.108376         0.196688
 C        -2.798227         1.053843         0.168378
 O        -2.464289         2.488870         0.038906
 C        -3.708075         0.856807         1.415489
 C        -4.277413        -0.585870         1.233350
 C        -4.056688        -1.417812         2.583902
 O        -4.944626        -0.862988         0.275111
 H        -0.021237        -2.440396        -0.720177
 H         1.136877        -1.020716        -0.979010
 H         1.016858        -1.877420         0.550220
 H        -3.479839         0.755785        -0.637045
 H        -1.455004         2.465586        -0.033949
 H        -3.171766         1.057650         2.381841
 H        -4.580540         1.571031         1.272042
 H        -3.161817        -2.046302         2.395880
 H        -3.995204        -0.825638         3.529523
 H        -4.945376        -2.083059         2.618344
