19
Iteration:  1999
 C         0.314659        -1.485659         0.276478
 C        -0.603423        -0.406030         0.293538
 C        -1.434617         0.499184         0.304202
 C        -2.767121         1.242391         0.157444
 O        -2.623836         2.620421         0.260800
 C        -3.669409         0.648632         1.355670
 C        -4.335759        -0.624002         1.065486
 C        -3.720620        -1.928234         1.776663
 O        -5.225041        -0.805935         0.212586
 H         1.389960        -1.216274         0.246424
 H         0.079393        -2.066768         1.186784
 H         0.218334        -2.137281        -0.606350
 H        -3.149510         1.062846        -0.831017
 H        -2.163853         3.010646        -0.475861
 H        -3.011291         0.509379         2.220307
 H        -4.530669         1.246874         1.670584
 H        -4.332901        -2.778162         1.535612
 H        -2.758517        -2.183777         1.449065
 H        -3.854789        -1.625746         2.791779
