19
Iteration:  2718
 C         0.192188        -1.555890        -0.153556
 C        -0.812197        -0.499418        -0.040857
 C        -1.683482         0.304946         0.055465
 C        -2.783543         1.208861         0.117265
 O        -2.493487         2.631016         0.172096
 C        -3.448966         0.678282         1.538812
 C        -4.241607        -0.593418         1.331949
 C        -4.215281        -1.599799         2.377521
 O        -4.696228        -0.859702         0.174053
 H         0.716448        -1.810211         0.786026
 H        -0.170471        -2.543143        -0.520606
 H         0.998715        -1.164509        -0.834571
 H        -3.566922         0.948615        -0.690495
 H        -1.559700         2.629088         0.282200
 H        -2.755524         0.926348         2.432378
 H        -4.254226         1.413353         1.675225
 H        -3.709435        -1.341370         3.344146
 H        -5.133208        -1.971450         2.754824
 H        -3.888631        -2.547304         2.012244
