19
Iteration:   326charge 0 multiplicity 1
 C         1.318588        -0.586313        -0.028359
 C        -0.022837        -0.067636         0.032542
 C        -1.213210         0.152601         0.146323
 C        -2.621449         0.554063         0.129111
 O        -2.785018         1.962175         0.175107
 C        -3.344076        -0.132413         1.363248
 C        -4.727397        -0.539509         1.256424
 C        -5.059953        -1.786758         2.046690
 O        -5.458220         0.131527         0.532104
 H         1.866681        -0.166424         0.861041
 H         1.421711        -1.699626         0.001365
 H         1.762319        -0.371812        -1.023088
 H        -3.199071         0.238454        -0.724464
 H        -3.143842         2.215985        -0.739873
 H        -2.611127        -0.830505         1.862230
 H        -3.374973         0.713906         2.050013
 H        -4.537651        -1.798781         3.026121
 H        -6.096183        -2.131672         1.994425
 H        -4.447533        -2.582468         1.546231
