19
Iteration:  4718charge 0 multiplicity 1
 C         0.572773        -1.182669        -0.582274
 C        -0.712514        -0.576277        -0.262791
 C        -1.689289         0.109758        -0.248255
 C        -2.753392         1.103247         0.067572
 O        -2.306707         2.431574         0.432746
 C        -3.443918         0.681193         1.431779
 C        -4.287375        -0.608614         1.357096
 C        -5.049465        -1.015805         2.848264
 O        -4.505128        -1.351923         0.434811
 H         1.457645        -0.741755        -0.092014
 H         0.553773        -2.246818        -0.410500
 H         0.785725        -1.050025        -1.619327
 H        -3.487121         1.156133        -0.687637
 H        -1.723393         2.727100        -0.242650
 H        -2.689118         0.691215         2.229547
 H        -4.121328         1.452638         1.795776
 H        -4.421470        -1.246062         3.693725
 H        -5.605594        -0.094590         3.089150
 H        -5.657849        -1.889045         2.539685
