19
Iteration:  3954
 C         0.565392        -1.143206         0.474421
 C        -0.628951        -0.499816        -0.127784
 C        -1.638039         0.152308        -0.357711
 C        -2.736277         1.050838        -0.223809
 O        -2.047849         2.473536         0.005501
 C        -3.578663         0.736502         1.149923
 C        -4.498370        -0.545159         1.398848
 C        -3.840283        -1.929264         1.831541
 O        -5.738059        -0.668477         1.252014
 H         1.462070        -1.575196        -0.079080
 H         0.923884        -0.409280         1.194151
 H         0.232772        -1.956314         1.063603
 H        -3.563034         1.062144        -1.064887
 H        -2.456670         3.001061        -0.713173
 H        -2.804453         0.636674         1.918595
 H        -4.191951         1.561214         1.491902
 H        -3.491639        -2.434194         1.037182
 H        -2.987563        -1.945039         2.499126
 H        -4.581621        -2.491159         2.310814
