19
Iteration:   457
 C         1.237729        -0.752374        -0.248115
 C        -0.135419        -0.112038        -0.153589
 C        -1.260371         0.284577         0.138660
 C        -2.620299         0.800233         0.235459
 O        -2.744067         2.223217         0.583487
 C        -3.325204        -0.082047         1.434530
 C        -4.664719        -0.717651         1.128835
 C        -5.419445        -1.322078         2.340734
 O        -5.050227        -0.672363        -0.020404
 H         1.985681        -0.163710         0.316091
 H         1.313370        -1.784293         0.113940
 H         1.721038        -0.601138        -1.215368
 H        -3.191137         0.878709        -0.716615
 H        -2.212765         2.329790         1.399663
 H        -2.487521        -0.802318         1.861718
 H        -3.538746         0.556280         2.310955
 H        -5.607986        -0.459145         2.976021
 H        -6.440807        -1.655801         2.065105
 H        -4.861735        -2.107197         2.858033
