19
Iteration:  1341charge 0 multiplicity 1
 C         1.077998        -0.814183        -0.118866
 C        -0.164239        -0.161124         0.121032
 C        -1.293212         0.392823         0.103551
 C        -2.755665         0.926837         0.316261
 O        -2.872530         2.401603         0.328105
 C        -3.341970         0.087630         1.523991
 C        -4.469330        -0.885336         1.134056
 C        -5.340946        -1.230642         2.268677
 O        -4.679395        -1.044943        -0.066603
 H         1.598039        -0.509063        -1.031829
 H         1.646790        -0.703728         0.841742
 H         0.894170        -1.946448        -0.068246
 H        -3.219393         0.609220        -0.601685
 H        -3.819076         2.566105         0.349325
 H        -2.494071        -0.460655         1.981227
 H        -3.701973         0.846692         2.274866
 H        -5.543912        -2.270561         2.244663
 H        -5.097610        -0.786098         3.258588
 H        -6.243498        -0.662153         1.881360
