19
Iteration:  2609
 C         0.153085        -1.527625        -0.041857
 C        -0.745450        -0.416873        -0.080306
 C        -1.697130         0.309946        -0.043244
 C        -2.803995         1.250976         0.084663
 O        -2.276314         2.612231         0.400361
 C        -3.787302         0.819320         1.261762
 C        -4.197405        -0.712129         1.213664
 C        -3.945993        -1.569540         2.431174
 O        -4.881801        -1.039558         0.248793
 H         0.695724        -1.676488         0.928230
 H        -0.523998        -2.399509        -0.336119
 H         0.883524        -1.460547        -0.921781
 H        -3.340657         1.235106        -0.937614
 H        -1.626997         2.403158         1.098001
 H        -3.152083         1.025186         2.196659
 H        -4.718839         1.385942         1.168600
 H        -3.324489        -2.410244         2.089868
 H        -3.449295        -0.958629         3.130607
 H        -4.894444        -1.959934         2.790484
