19
Iteration:  2277charge 0 multiplicity 1
 C         0.755835        -1.148813         0.012252
 C        -0.463147        -0.346546         0.198857
 C        -1.543931         0.239902         0.424561
 C        -2.797373         0.976702         0.216272
 O        -2.366757         2.290133        -0.015760
 C        -3.783570         0.754201         1.459259
 C        -4.517728        -0.608705         1.178367
 C        -3.914371        -1.830081         1.748828
 O        -5.517769        -0.615290         0.492586
 H         1.682531        -0.788455         0.514476
 H         0.560300        -2.219160         0.220146
 H         1.012082        -1.068715        -1.067407
 H        -3.352145         0.627328        -0.711420
 H        -1.620440         2.293740         0.690906
 H        -3.184403         0.750144         2.373794
 H        -4.534491         1.552622         1.411212
 H        -4.596960        -2.620499         1.441362
 H        -2.894230        -1.863126         1.358216
 H        -4.048270        -1.702503         2.795216
