19
Iteration:  3506charge 0 multiplicity 1
 C         0.319666        -1.511044        -0.192387
 C        -0.665446        -0.480239        -0.000199
 C        -1.652735         0.264604        -0.143193
 C        -2.819435         1.082775         0.060695
 O        -2.526948         2.503344         0.225738
 C        -3.440135         0.691150         1.436017
 C        -4.300972        -0.471038         1.296508
 C        -4.384228        -1.372696         2.602416
 O        -4.701663        -0.964625         0.283936
 H        -0.186007        -2.536276        -0.387690
 H         0.834535        -1.307777        -1.182966
 H         1.098809        -1.589733         0.579689
 H        -3.605403         0.860548        -0.693920
 H        -1.793218         2.689881        -0.329831
 H        -2.590707         0.463497         2.068132
 H        -4.084126         1.465957         1.923551
 H        -3.310180        -1.399968         2.978698
 H        -5.028433        -1.165111         3.560070
 H        -4.631894        -2.347109         2.116863
