19
Iteration:  4140
 C         0.889103        -1.235594         0.235611
 C        -0.328088        -0.428485         0.086655
 C        -1.326531         0.268717         0.229498
 C        -2.667271         0.897431        -0.009844
 O        -2.693031         2.311326        -0.394579
 C        -3.444516         0.594609         1.432245
 C        -4.561235        -0.517057         1.401549
 C        -4.115100        -1.923521         1.617830
 O        -5.766616        -0.266455         1.148400
 H         1.497866        -0.902689        -0.671832
 H         1.471506        -1.038881         1.140298
 H         0.770596        -2.248607        -0.024193
 H        -3.150361         0.433288        -0.821076
 H        -2.215231         2.334422        -1.238354
 H        -2.815018         0.179667         2.205069
 H        -3.850799         1.466336         1.876859
 H        -3.224511        -2.055609         0.970647
 H        -3.781578        -1.954634         2.707644
 H        -5.017565        -2.590723         1.402288
