19
Iteration:  2200
 C         0.821567        -1.101372         0.063675
 C        -0.402155        -0.327082         0.113523
 C        -1.564542         0.110881         0.272266
 C        -2.702091         1.011655         0.125340
 O        -2.241228         2.379080         0.336983
 C        -3.824950         0.769456         1.066101
 C        -4.624287        -0.599970         1.028340
 C        -3.854687        -1.768117         1.808094
 O        -5.744582        -0.785085         0.674805
 H         1.630359        -0.704377         0.762885
 H         0.589345        -2.038424         0.612916
 H         1.170116        -1.465742        -0.932975
 H        -2.988276         0.893274        -0.995193
 H        -1.870017         2.157547         1.184977
 H        -3.562227         1.066686         2.098837
 H        -4.511969         1.566649         0.751622
 H        -4.247031        -1.550872         2.841673
 H        -4.167293        -2.789007         1.414357
 H        -2.759537        -1.591585         1.864578
