19
Iteration:  4695charge 0 multiplicity 1
 C         0.573245        -1.310202        -0.703070
 C        -0.611251        -0.622131        -0.181407
 C        -1.572822         0.165771        -0.030724
 C        -2.755114         1.028564         0.102139
 O        -2.365220         2.477054         0.455746
 C        -3.662874         0.726728         1.329230
 C        -4.385394        -0.582908         1.419752
 C        -4.904463        -1.075586         2.766489
 O        -4.493401        -1.225051         0.442137
 H         1.559718        -0.905660        -0.342525
 H         0.576014        -2.389393        -0.556665
 H         0.637597        -1.154901        -1.759720
 H        -3.227352         0.993039        -0.832507
 H        -1.983004         2.654662        -0.477982
 H        -2.963993         1.066810         2.101986
 H        -4.450971         1.437096         1.433277
 H        -3.992640        -1.128888         3.363663
 H        -5.538652        -0.297098         3.201925
 H        -5.313170        -2.100692         2.598329
