19
Iteration:  1804
 C         0.601607        -1.288636        -0.158733
 C        -0.677736        -0.536619         0.134233
 C        -1.529154         0.385444         0.340366
 C        -2.744254         1.253864         0.317645
 O        -2.444806         2.658771         0.662236
 C        -3.856328         0.772616         1.181896
 C        -4.404992        -0.702222         0.957151
 C        -4.247617        -1.592418         2.181611
 O        -4.862105        -1.279472        -0.065517
 H         1.355710        -0.774732        -0.761619
 H         1.074076        -1.539509         0.775465
 H         0.434674        -2.183443        -0.695887
 H        -2.958043         1.337455        -0.788978
 H        -1.917652         2.794028         1.472216
 H        -3.344583         0.934177         2.106624
 H        -4.767685         1.274858         1.115715
 H        -3.286630        -1.475611         2.717185
 H        -5.112501        -1.194072         2.771496
 H        -4.541693        -2.563497         1.798064
