19
Iteration:  1979charge 0 multiplicity 1
 C         0.337628        -1.439780         0.292652
 C        -0.615614        -0.280280         0.213975
 C        -1.612226         0.416307         0.203827
 C        -2.796788         1.128558         0.298894
 O        -2.510424         2.595821         0.339055
 C        -3.678218         0.663300         1.312807
 C        -4.281239        -0.755854         0.986163
 C        -3.749608        -1.889486         1.900198
 O        -5.186422        -0.748952         0.151695
 H         1.432310        -1.258189         0.220811
 H         0.139675        -2.056920         1.151222
 H         0.115313        -2.094135        -0.505993
 H        -3.258497         0.880403        -0.643791
 H        -2.197977         2.962258        -0.438370
 H        -3.348540         0.820040         2.312148
 H        -4.420509         1.408812         1.192524
 H        -4.540142        -2.638443         1.961042
 H        -2.915285        -2.268763         1.187138
 H        -3.391208        -1.213823         2.724799
