19
Iteration:  4265charge 0 multiplicity 1
 C         0.895382        -0.833290         0.134732
 C        -0.583051        -0.547350         0.129302
 C        -1.731854        -0.159713         0.028311
 C        -2.773061         0.796444        -0.011977
 O        -2.190931         2.210943        -0.127056
 C        -3.632843         0.761426         1.249555
 C        -4.507048        -0.468488         1.419531
 C        -4.013767        -1.937736         1.684630
 O        -5.701313        -0.311326         1.112089
 H         1.350754        -0.016564        -0.366814
 H         1.249093        -0.881646         1.165216
 H         1.095763        -1.809255        -0.394115
 H        -3.266705         0.760245        -0.868683
 H        -1.317930         2.165766         0.213859
 H        -2.897835         1.029978         2.069314
 H        -4.332637         1.631051         1.223802
 H        -3.139714        -2.021389         1.061178
 H        -3.774650        -1.876165         2.716015
 H        -4.843081        -2.519847         1.340827
