19
Iteration:  1439
 C         0.874678        -0.866171        -0.048260
 C        -0.481685        -0.214528         0.088397
 C        -1.481475         0.451983         0.044032
 C        -2.769259         1.038939         0.243255
 O        -2.662567         2.376930         0.482874
 C        -3.462876         0.392314         1.435461
 C        -4.358881        -0.825096         1.053568
 C        -5.140380        -1.394648         2.215508
 O        -4.573092        -1.214049        -0.061691
 H         1.509087        -0.629469        -0.913966
 H         1.367552        -0.674879         0.964413
 H         0.785282        -2.021863         0.050035
 H        -3.441688         0.734960        -0.649004
 H        -1.942527         2.539157         1.117613
 H        -2.719321        -0.006573         2.159119
 H        -4.164811         1.080003         1.951071
 H        -4.413573        -1.451359         3.019245
 H        -5.907886        -0.652388         2.546449
 H        -5.727373        -2.337428         2.124670
