19
Iteration:  4775charge 0 multiplicity 1
 C         0.492056        -1.060411        -0.420207
 C        -0.687369        -0.273801        -0.690299
 C        -1.821186         0.094154        -0.480158
 C        -2.787112         0.995647         0.129847
 O        -2.288514         2.323556         0.354024
 C        -3.129321         0.319031         1.647905
 C        -4.269798        -0.620963         1.532372
 C        -5.338633        -0.836465         2.648093
 O        -4.369127        -1.295243         0.581547
 H         0.929616        -0.560529         0.414589
 H         0.248889        -2.024881         0.002291
 H         1.226361        -1.211159        -1.227780
 H        -3.736442         1.107777        -0.419745
 H        -1.260591         2.236976         0.464882
 H        -2.276013        -0.073818         2.164154
 H        -3.598719         1.257075         2.092178
 H        -4.716830        -0.966843         3.547062
 H        -5.973281         0.134810         2.652872
 H        -6.076084        -1.593056         2.431221
