19
Iteration:  4826
 C         0.605872        -1.072571        -0.731743
 C        -0.647200        -0.481025        -0.432955
 C        -1.675784         0.125613        -0.217300
 C        -2.736100         0.970743         0.253185
 O        -2.506011         2.419526         0.393844
 C        -3.234914         0.339083         1.602480
 C        -4.277791        -0.675530         1.447192
 C        -5.314924        -0.527854         2.621970
 O        -4.364817        -1.483919         0.513968
 H         1.447803        -0.727801         0.024506
 H         0.514244        -2.172527        -0.654311
 H         0.828364        -0.855665        -1.772290
 H        -3.525208         0.907421        -0.450211
 H        -1.577115         2.659717         0.615453
 H        -2.394963        -0.347991         1.918996
 H        -3.441624         1.140337         2.251174
 H        -4.779947        -0.388908         3.552515
 H        -6.059238         0.253054         2.410193
 H        -5.965810        -1.419831         2.577699
