19
Iteration:  4908
 C         0.640245        -1.124880        -1.212877
 C        -0.315598        -0.306333        -0.421455
 C        -1.298502         0.131913         0.190038
 C        -2.575646         0.883555         0.455344
 O        -2.397354         2.279353         0.228238
 C        -3.536758         0.651500         1.616351
 C        -4.571850        -0.579667         1.506088
 C        -5.565338        -0.792990         2.560865
 O        -4.371842        -1.461761         0.730033
 H         1.572770        -1.163044        -0.695250
 H         0.173916        -2.141082        -1.319741
 H         0.859260        -0.650575        -2.219106
 H        -3.189930         0.506234        -0.408443
 H        -1.691868         2.480216        -0.484180
 H        -3.143179         0.564246         2.612256
 H        -4.048576         1.678033         1.703380
 H        -5.421742        -0.767981         3.669398
 H        -6.332425         0.041604         2.576503
 H        -6.028866        -1.826708         2.432388
