19
Iteration:  4999charge 0 multiplicity 1
 C         0.682678        -0.945389        -0.711256
 C        -0.673535        -0.406764        -0.563522
 C        -1.720237         0.119439        -0.308454
 C        -2.866194         0.916084         0.140985
 O        -2.165987         2.231129         0.287192
 C        -3.430289         0.597004         1.602072
 C        -4.340062        -0.659223         1.645697
 C        -5.460847        -0.767725         2.704905
 O        -4.302503        -1.466567         0.688078
 H         1.057638        -0.929597         0.305645
 H         0.659584        -1.925248        -1.122328
 H         1.315486        -0.304153        -1.233940
 H        -3.589680         1.033426        -0.684189
 H        -1.384296         2.098246        -0.275021
 H        -2.444761         0.382426         2.151916
 H        -3.764370         1.522669         1.976219
 H        -4.948688        -0.550425         3.659372
 H        -6.102229         0.082080         2.566547
 H        -5.851172        -1.731461         2.444836
