19
Iteration:  3006charge 0 multiplicity 1
 C         0.641291        -1.298088        -0.715006
 C        -0.317291        -0.276989        -0.327498
 C        -1.324803         0.311512         0.035874
 C        -2.684583         0.848525         0.340624
 O        -2.654378         2.302357         0.147332
 C        -3.425437         0.515190         1.602698
 C        -4.364719        -0.618761         1.410736
 C        -5.188519        -1.098636         2.712947
 O        -4.641169        -0.972999         0.341135
 H         0.728248        -2.041886         0.077617
 H         0.213408        -1.803528        -1.587300
 H         1.599576        -1.014145        -1.095601
 H        -3.311249         0.446541        -0.526916
 H        -1.947204         2.667310         0.778093
 H        -2.697628         0.330447         2.470018
 H        -4.028234         1.321433         1.959027
 H        -4.971058        -0.465203         3.556675
 H        -6.259522        -0.970741         2.520782
 H        -4.887705        -2.148884         2.810624
