19
Iteration:   909charge 0 multiplicity 1
 C         1.422424         0.213858         0.281312
 C         0.043556         0.001331         0.056887
 C        -1.157620         0.028289        -0.087776
 C        -2.631170         0.264045         0.061639
 O        -2.729361         1.560496         0.661474
 C        -3.300646        -0.887628         0.768340
 C        -4.695072        -0.660099         1.051354
 C        -5.154693        -0.132871         2.345773
 O        -5.631831        -0.784848         0.248798
 H         1.819948         1.204168         0.015847
 H         1.538213         0.091382         1.357896
 H         2.029612        -0.560368        -0.207221
 H        -2.982120         0.205269        -1.011023
 H        -3.634389         1.589986         1.161305
 H        -3.061640        -1.712903         0.142919
 H        -2.708641        -1.092384         1.670860
 H        -5.138412         0.985544         2.258112
 H        -6.166326        -0.507112         2.546801
 H        -4.532410        -0.385815         3.277306
