19
Iteration:    39
 C         1.409977         0.226755         0.047876
 C         0.018357         0.036235         0.123090
 C        -1.158340        -0.211760         0.008886
 C        -2.591068        -0.272045        -0.032593
 O        -3.114009         0.982085        -0.505256
 C        -3.085112        -0.335324         1.459311
 C        -4.626529        -0.196626         1.607235
 C        -5.487497        -1.370918         1.036335
 O        -5.152703         0.842373         1.999090
 H         1.968178         0.339034         1.006517
 H         1.817395        -0.721942        -0.376017
 H         1.639618         1.112060        -0.586287
 H        -3.030623        -1.159890        -0.609283
 H        -3.790551         0.651405        -1.043131
 H        -2.719621        -1.303021         1.873521
 H        -2.744134         0.581512         1.968925
 H        -5.035509        -2.390292         1.199701
 H        -6.542025        -1.165610         1.292012
 H        -5.338651        -1.446109        -0.066669
