19
Iteration:   446
 C         1.172372        -0.678234        -0.205390
 C        -0.119120        -0.115963        -0.107328
 C        -1.259590         0.258142         0.062555
 C        -2.621329         0.738334         0.267727
 O        -2.692982         2.196192         0.551145
 C        -3.351307        -0.058498         1.426595
 C        -4.676531        -0.661981         1.126076
 C        -5.327266        -1.362411         2.366405
 O        -5.053886        -0.592124        -0.057827
 H         1.856833        -0.232354         0.533655
 H         1.040995        -1.745120         0.058270
 H         1.479257        -0.765846        -1.255213
 H        -3.076617         0.460873        -0.720570
 H        -2.909920         2.243455         1.577438
 H        -2.694730        -0.989417         1.797672
 H        -3.357227         0.669805         2.246495
 H        -5.451460        -0.614978         3.158080
 H        -6.305316        -1.819546         2.086628
 H        -4.714293        -2.107840         2.878010
