19
Iteration:   623charge 0 multiplicity 1
 C         1.215051        -0.460787        -0.653492
 C        -0.088173        -0.047909        -0.113934
 C        -1.215884         0.273212         0.239431
 C        -2.609576         0.635542         0.529461
 O        -2.622397         2.030945         0.909393
 C        -3.331401        -0.203111         1.631316
 C        -4.721063        -0.780298         1.069943
 C        -5.914433        -0.483262         2.007437
 O        -4.686228        -1.316349        -0.047404
 H         1.903157         0.338222        -0.487845
 H         1.664607        -1.376750        -0.264627
 H         1.199343        -0.467564        -1.756460
 H        -3.219549         0.390782        -0.381528
 H        -1.720539         2.298566         0.876113
 H        -2.683594        -0.984486         2.052408
 H        -3.634017         0.356078         2.497872
 H        -6.315182         0.416999         1.594524
 H        -6.782111        -1.134625         1.990382
 H        -5.748992        -0.318963         3.086305
