19
Iteration:  1128charge 0 multiplicity 1
 C         1.504681        -0.068786         0.265812
 C         0.039336         0.072533         0.001630
 C        -1.178860         0.292408        -0.035062
 C        -2.590045         0.259470         0.088389
 O        -2.999883         1.600021         0.161352
 C        -3.202429        -0.482707         1.295982
 C        -4.725851        -0.705689         1.105104
 C        -5.363620        -0.883277         2.517836
 O        -5.397233        -0.415028         0.124325
 H         1.933666         0.629104        -0.532964
 H         1.867461         0.301849         1.236543
 H         1.892646        -1.063409         0.070563
 H        -3.032969        -0.130372        -0.799983
 H        -2.159572         2.021957        -0.053900
 H        -2.708848        -1.485626         1.336834
 H        -2.901783         0.008287         2.210303
 H        -5.116961        -0.127406         3.269827
 H        -6.445534        -0.925078         2.383015
 H        -5.074889        -1.822309         2.924985
