19
Iteration:  3752charge 0 multiplicity 1
 C         0.448648        -1.478184        -0.003577
 C        -0.740087        -0.619592        -0.066380
 C        -1.582468         0.231113         0.138779
 C        -2.752891         1.115019        -0.066024
 O        -2.371408         2.475940         0.110466
 C        -3.663746         0.848614         1.093181
 C        -4.271646        -0.581485         1.328686
 C        -3.800732        -1.579072         2.282495
 O        -5.386405        -0.790369         0.743934
 H         0.716611        -2.266010        -0.677283
 H         1.332916        -0.775597         0.035578
 H         0.396387        -1.977000         1.061961
 H        -3.247669         1.008604        -1.048361
 H        -2.452684         2.959051        -0.696790
 H        -2.988642         1.107545         1.981077
 H        -4.410014         1.671535         1.037751
 H        -2.738446        -1.956057         2.209044
 H        -4.041981        -1.280852         3.323747
 H        -4.378524        -2.505564         2.136671
