19
Iteration:  3493
 C         0.392885        -1.456410        -0.150834
 C        -0.710757        -0.510418        -0.144356
 C        -1.772493         0.159224        -0.221169
 C        -2.896767         1.070063         0.075203
 O        -2.500265         2.452059         0.307431
 C        -3.461342         0.776574         1.414008
 C        -4.303301        -0.528552         1.382651
 C        -4.379853        -1.376303         2.561215
 O        -4.600266        -0.912873         0.280800
 H        -0.107347        -2.440717        -0.078538
 H         1.032731        -1.419160        -1.052918
 H         1.009290        -1.480597         0.737333
 H        -3.647359         1.084546        -0.801299
 H        -1.647990         2.666401        -0.213178
 H        -2.632187         0.601160         2.118741
 H        -3.776663         1.735650         1.720181
 H        -3.419490        -1.465493         3.142838
 H        -5.213071        -0.919172         3.205881
 H        -4.683270        -2.409923         2.312238
