19
Iteration:  3181charge 0 multiplicity 1
 C         0.579452        -1.077223        -0.587039
 C        -0.583302        -0.279531        -0.292466
 C        -1.718530         0.112161        -0.239481
 C        -2.845206         0.941531         0.121189
 O        -2.259487         2.247461         0.628027
 C        -3.454160         0.463258         1.409513
 C        -4.340920        -0.695183         1.292023
 C        -5.042941        -0.729209         2.696192
 O        -4.535509        -1.387655         0.395226
 H         0.808097        -1.923704         0.076603
 H         0.458953        -1.371024        -1.625513
 H         1.332932        -0.320418        -0.626652
 H        -3.642635         0.982675        -0.542729
 H        -1.374606         2.329607         0.131685
 H        -2.736134         0.488916         2.244224
 H        -4.085480         1.285065         1.698032
 H        -4.253617        -0.399864         3.413575
 H        -5.688572         0.165976         2.476542
 H        -5.489422        -1.669539         3.098318
