19
Iteration:  1832
 C         0.547833        -1.228254        -0.082431
 C        -0.652002        -0.417334         0.037453
 C        -1.627806         0.295333         0.290599
 C        -2.719871         1.193453         0.337194
 O        -2.355743         2.519393         0.672833
 C        -3.933013         0.774909         1.113088
 C        -4.386173        -0.724335         0.959968
 C        -4.136414        -1.624390         2.255224
 O        -4.916664        -1.125924        -0.075710
 H         1.328169        -0.631994        -0.575090
 H         0.980280        -1.478620         0.933231
 H         0.528103        -2.237818        -0.649049
 H        -2.946045         1.289133        -0.709326
 H        -1.864034         2.659422         1.549053
 H        -3.693042         1.234886         2.096844
 H        -4.909071         1.181242         0.700394
 H        -3.678784        -1.008148         3.072825
 H        -5.145624        -1.797762         2.627772
 H        -3.628449        -2.555745         1.970461
