19
Iteration:  4517charge 0 multiplicity 1
 C         0.154743        -1.462586         0.250771
 C        -0.893070        -0.488739        -0.048397
 C        -1.739808         0.343549        -0.320025
 C        -2.930881         1.201964        -0.063051
 O        -2.308634         2.539917         0.165521
 C        -3.501609         0.736465         1.325260
 C        -4.119649        -0.619276         1.259921
 C        -3.765938        -1.709622         2.331762
 O        -5.113555        -0.821611         0.515845
 H         1.109017        -1.021475         0.523048
 H        -0.173355        -2.046359         1.121448
 H         0.314239        -2.146986        -0.601729
 H        -3.770212         1.151142        -0.779484
 H        -1.309782         2.315511         0.017243
 H        -2.616722         0.772530         1.964129
 H        -4.222452         1.387807         1.733376
 H        -2.760814        -2.164339         2.185242
 H        -3.869970        -1.283541         3.329520
 H        -4.676376        -2.276865         2.270680
