19
Iteration:  3907charge 0 multiplicity 1
 C         0.521763        -1.362367         0.375523
 C        -0.574156        -0.532019        -0.060640
 C        -1.564021         0.181473        -0.146351
 C        -2.868251         0.940679        -0.060929
 O        -2.406555         2.359183         0.064310
 C        -3.607478         0.742488         1.161908
 C        -4.374591        -0.528414         1.313862
 C        -3.589472        -1.740675         1.869395
 O        -5.621566        -0.443135         0.999648
 H         1.013737        -1.839563        -0.450742
 H         1.329845        -0.875506         0.941955
 H         0.314337        -2.267445         0.982437
 H        -3.428347         0.816461        -1.117089
 H        -3.087567         2.998641        -0.381099
 H        -2.910292         0.954118         1.978228
 H        -4.365206         1.562449         1.316560
 H        -3.293388        -2.284548         0.930270
 H        -2.627484        -1.510381         2.321068
 H        -4.121836        -2.423774         2.546752
