19
Iteration:  1557charge 0 multiplicity 1
 C         0.683877        -0.969253        -0.133757
 C        -0.512395        -0.288749         0.188285
 C        -1.537204         0.273969         0.305362
 C        -2.757636         0.997001         0.270878
 O        -2.482639         2.401232         0.683925
 C        -3.821003         0.601021         1.288144
 C        -4.334834        -0.739332         0.973851
 C        -4.757775        -1.457284         2.179150
 O        -4.606457        -1.196497        -0.095947
 H         0.853878        -0.437116        -1.067782
 H         1.609110        -0.878578         0.434143
 H         0.607379        -1.981782        -0.473774
 H        -3.049898         1.017489        -0.811015
 H        -1.969432         3.116479         0.130484
 H        -3.428272         0.779523         2.283174
 H        -4.697805         1.222148         1.095479
 H        -5.573875        -0.935146         2.703411
 H        -4.930452        -2.577940         2.047714
 H        -3.815476        -1.438104         2.904137
