19
Iteration:    31
 C         1.419452         0.180595         0.020408
 C        -0.002890         0.088645         0.151659
 C        -1.149056        -0.236483         0.017256
 C        -2.579225        -0.293437         0.020146
 O        -3.180993         0.949679        -0.519069
 C        -3.091428        -0.274463         1.469004
 C        -4.602601        -0.174316         1.520505
 C        -5.466574        -1.388202         0.960435
 O        -5.121143         0.815376         2.068480
 H         1.795044         0.386212         1.050132
 H         1.949456        -0.633641        -0.481187
 H         1.646960         1.060858        -0.558543
 H        -2.908572        -1.178806        -0.507129
 H        -3.497461         0.881219        -1.408293
 H        -2.772394        -1.131921         2.199478
 H        -2.657064         0.589764         1.922923
 H        -5.256823        -2.398154         1.426163
 H        -6.511986        -1.220969         1.331057
 H        -5.571440        -1.224571        -0.116373
