19
Iteration:   595charge 0 multiplicity 1
 C         1.201235        -0.527578        -0.628649
 C        -0.081351        -0.003924        -0.182513
 C        -1.219082         0.141181         0.261993
 C        -2.580810         0.661158         0.471537
 O        -2.582593         2.103406         0.854484
 C        -3.283312        -0.163169         1.592835
 C        -4.655577        -0.635064         1.132424
 C        -5.913439        -0.638217         1.943091
 O        -4.736901        -1.229738         0.080308
 H         1.907140         0.339272        -0.356681
 H         1.510963        -1.502961        -0.191178
 H         1.246772        -0.484873        -1.734460
 H        -3.088684         0.456982        -0.510427
 H        -3.153013         2.185615         1.566015
 H        -2.648410        -0.994374         1.902248
 H        -3.507719         0.344528         2.610103
 H        -6.735362         0.137239         1.708089
 H        -6.486155        -1.509168         1.477161
 H        -5.796427        -0.799318         3.003934
