19
Iteration:  4532charge 0 multiplicity 1
 C         0.219436        -1.525976         0.215056
 C        -0.802076        -0.488394        -0.225011
 C        -1.774823         0.253148        -0.341521
 C        -2.852960         1.202481         0.038915
 O        -2.400697         2.554098         0.142540
 C        -3.552858         0.783060         1.359093
 C        -4.196777        -0.603834         1.409113
 C        -3.905891        -1.671782         2.397382
 O        -4.961334        -0.808638         0.425449
 H         1.193658        -1.081005         0.553820
 H        -0.230770        -2.063678         1.039646
 H         0.423121        -2.200093        -0.578409
 H        -3.582860         1.351912        -0.853556
 H        -1.512180         2.502674         0.445208
 H        -2.813215         0.825437         2.212514
 H        -4.405549         1.540588         1.485918
 H        -2.906907        -2.038224         2.135072
 H        -3.855382        -1.324332         3.433674
 H        -4.410244        -2.624718         2.297621
