19
Iteration:   480charge 0 multiplicity 1
 C         1.190367        -0.666289        -0.317507
 C        -0.149719        -0.192878        -0.098778
 C        -1.199187         0.411064         0.048056
 C        -2.546089         0.736535         0.396615
 O        -2.699271         2.220930         0.710108
 C        -3.284466        -0.041705         1.506773
 C        -4.629289        -0.682222         1.115346
 C        -5.504578        -1.182032         2.222920
 O        -5.120538        -0.909673        -0.018893
 H         2.015483        -0.178788         0.201250
 H         1.196799        -1.723832         0.019652
 H         1.522800        -0.634803        -1.378798
 H        -3.110195         0.615997        -0.558631
 H        -2.028813         2.634510         0.045746
 H        -2.503225        -0.819640         1.856859
 H        -3.347617         0.588643         2.420458
 H        -5.840214        -0.371890         2.836601
 H        -6.423301        -1.455880         1.686227
 H        -5.169082        -2.042344         2.843084
