19
Iteration:   763charge 0 multiplicity 1
 C         1.417571        -0.362151        -0.343204
 C         0.004256         0.012028        -0.089257
 C        -1.137729         0.350485         0.180309
 C        -2.601833         0.542634         0.362127
 O        -2.966027         1.933534         0.872599
 C        -3.213197        -0.647373         1.269425
 C        -4.704857        -0.759958         1.094785
 C        -5.712204        -0.069255         2.117748
 O        -5.004138        -1.307689         0.062835
 H         1.824118         0.631610        -0.497594
 H         1.926538        -0.914977         0.464009
 H         1.531714        -0.780883        -1.363462
 H        -3.121363         0.335101        -0.586157
 H        -2.127069         2.022034         1.527885
 H        -2.703699        -1.588826         0.963257
 H        -2.911089        -0.487056         2.278393
 H        -5.288941         0.906920         2.359248
 H        -6.565239         0.041215         1.427007
 H        -5.950615        -0.823222         2.877574
