19
Iteration:  3585charge 0 multiplicity 1
 C         0.300362        -1.606297        -0.380425
 C        -0.413367        -0.406165         0.073742
 C        -1.387792         0.347203         0.170889
 C        -2.722780         1.019944         0.175086
 O        -2.600749         2.400085         0.115116
 C        -3.784583         0.840670         1.397346
 C        -4.399657        -0.512248         1.315849
 C        -4.160244        -1.404706         2.535802
 O        -4.882484        -0.915178         0.309396
 H        -0.358037        -2.516035        -0.619877
 H         1.063623        -1.451562        -1.175877
 H         0.920109        -2.095974         0.420129
 H        -3.369123         0.571821        -0.603704
 H        -1.960121         2.622220        -0.512504
 H        -3.264678         1.114364         2.329444
 H        -4.451064         1.697078         1.113172
 H        -3.261877        -1.964021         2.191807
 H        -3.999284        -0.792762         3.508227
 H        -5.045658        -2.089423         2.611548
