19
Iteration:  3544charge 0 multiplicity 1
 C         0.251007        -1.641719        -0.350752
 C        -0.610805        -0.468630        -0.025349
 C        -1.291858         0.464450         0.285179
 C        -2.637213         1.166730         0.185955
 O        -2.600793         2.632001         0.011989
 C        -3.542723         0.681147         1.371526
 C        -4.194410        -0.719026         1.241154
 C        -4.342037        -1.451391         2.608714
 O        -4.979362        -0.967439         0.360417
 H        -0.295386        -2.571537        -0.514880
 H         0.859757        -1.380374        -1.216589
 H         0.979522        -1.771974         0.522409
 H        -2.989044         0.812085        -0.747515
 H        -2.203699         2.870287        -0.916175
 H        -3.076277         0.892030         2.386459
 H        -4.534243         1.232290         1.446704
 H        -3.494145        -1.944762         3.049051
 H        -4.718974        -0.765635         3.342039
 H        -5.098616        -2.187070         2.402661
