19
Iteration:    85charge 0 multiplicity 1
 C         1.457588         0.238139         0.108518
 C         0.046940        -0.091989        -0.077960
 C        -1.151053        -0.147381         0.044933
 C        -2.608097        -0.068323         0.039839
 O        -3.130313         1.122696        -0.421307
 C        -3.127509        -0.456678         1.401154
 C        -4.703009        -0.303388         1.488074
 C        -5.608253        -1.504452         1.299570
 O        -5.086673         0.831229         1.743574
 H         1.722353         0.503748         1.174156
 H         2.124027        -0.616001        -0.131100
 H         1.732244         1.122102        -0.454183
 H        -2.915978        -0.987865        -0.573239
 H        -2.513571         1.607654        -0.919946
 H        -2.839791        -1.548176         1.680891
 H        -2.787751         0.300940         2.068978
 H        -5.038195        -2.198355         2.003548
 H        -6.649516        -1.200727         1.522268
 H        -5.335404        -2.034249         0.367954
