19
Iteration:  1315charge 0 multiplicity 1
 C         1.084148        -0.666682        -0.146161
 C        -0.196870        -0.252091         0.091656
 C        -1.212421         0.452812         0.206209
 C        -2.690609         0.784116         0.283483
 O        -2.834787         2.148207         0.324141
 C        -3.309727         0.242789         1.579517
 C        -4.571283        -0.647214         1.133190
 C        -5.405726        -1.286488         2.239972
 O        -4.725452        -1.037462        -0.050536
 H         1.447987        -0.154958        -1.134651
 H         1.708908        -0.446008         0.755048
 H         1.102081        -1.761723        -0.228265
 H        -3.057284         0.310275        -0.695622
 H        -3.761891         2.429728         0.177803
 H        -2.613495        -0.418241         2.130100
 H        -3.476226         1.146570         2.153955
 H        -5.851904        -2.194416         1.735031
 H        -4.985160        -1.493694         3.222187
 H        -6.181373        -0.539435         2.355608
