19
Iteration:  3651
 C         0.461888        -1.171162        -0.054179
 C        -0.987629        -0.756027        -0.095170
 C        -1.871972         0.059095        -0.246537
 C        -2.819609         1.102979         0.143884
 O        -2.138873         2.344559         0.026239
 C        -3.692470         0.913052         1.411707
 C        -4.308030        -0.487691         1.377758
 C        -3.971921        -1.517913         2.469130
 O        -4.984720        -0.895302         0.406010
 H         0.774337        -2.151726        -0.531605
 H         0.961172        -0.257074        -0.424097
 H         0.707980        -1.309665         1.049968
 H        -3.548778         1.319635        -0.712940
 H        -1.587404         2.564747         0.876500
 H        -3.116773         0.964592         2.367260
 H        -4.526317         1.653728         1.369829
 H        -2.870479        -1.761946         2.567625
 H        -4.260471        -1.270143         3.576416
 H        -4.560059        -2.469179         2.357336
