19
Iteration:  4832charge 0 multiplicity 1
 C         0.648116        -1.122265        -0.805042
 C        -0.608152        -0.461679        -0.402401
 C        -1.653432         0.139433        -0.148947
 C        -2.768980         0.956235         0.335928
 O        -2.521453         2.406139         0.396534
 C        -3.236503         0.403855         1.550652
 C        -4.296685        -0.662266         1.392328
 C        -5.295285        -0.570509         2.566878
 O        -4.391254        -1.502754         0.548825
 H         1.370668        -0.756057        -0.160020
 H         0.530257        -2.207323        -0.705326
 H         0.950553        -0.814083        -1.828654
 H        -3.585702         0.885211        -0.485130
 H        -1.637002         2.658748         0.541467
 H        -2.469805        -0.246596         2.003731
 H        -3.493063         1.170468         2.342865
 H        -4.853294        -0.182190         3.530959
 H        -5.909639         0.370852         2.452564
 H        -6.024894        -1.371517         2.822002
