19
Iteration:   129
 C         1.515866         0.094522         0.071848
 C         0.066723         0.090480         0.089763
 C        -1.097004        -0.162426        -0.139953
 C        -2.563589        -0.032450         0.015420
 O        -2.990589         1.284214        -0.407494
 C        -3.159041        -0.514191         1.377020
 C        -4.761028        -0.348029         1.476241
 C        -5.592860        -1.580837         1.543882
 O        -5.250066         0.795267         1.547948
 H         1.911664         0.456118         1.079635
 H         1.984585        -0.893162        -0.129484
 H         1.870866         0.938224        -0.521563
 H        -3.022101        -0.656811        -0.865302
 H        -3.430482         1.779992         0.364316
 H        -2.853943        -1.650128         1.300464
 H        -2.649862         0.007415         2.171498
 H        -5.511536        -2.012829         2.618061
 H        -6.607496        -1.285743         1.167872
 H        -5.038495        -2.310652         0.889593
