19
Iteration:  2988charge 0 multiplicity 1
 C         0.597072        -1.337776        -0.663115
 C        -0.236574        -0.108378        -0.340617
 C        -1.393992         0.147168        -0.056146
 C        -2.641066         0.883498         0.254733
 O        -2.644951         2.299275         0.243177
 C        -3.400487         0.511578         1.665970
 C        -4.568900        -0.519485         1.366347
 C        -5.048264        -1.078612         2.701460
 O        -4.680905        -1.073262         0.292644
 H         0.666063        -1.882052         0.313585
 H         0.274900        -1.979269        -1.527988
 H         1.703617        -1.087171        -0.961330
 H        -3.327603         0.622208        -0.593328
 H        -1.888697         2.677283         0.844035
 H        -2.834881         0.419538         2.580134
 H        -3.813508         1.549822         1.961931
 H        -4.759524        -0.532655         3.603102
 H        -6.146524        -1.128412         2.725401
 H        -4.618666        -2.070741         2.835696
