19
Iteration:   694charge 0 multiplicity 1
 C         1.338679        -0.409492        -0.551001
 C        -0.062370        -0.072803        -0.149868
 C        -1.183911         0.295477         0.165892
 C        -2.605793         0.629735         0.484047
 O        -2.708628         1.990782         0.925599
 C        -3.308900        -0.317992         1.539473
 C        -4.712995        -0.787433         1.114960
 C        -5.966525        -0.305452         1.972013
 O        -4.774166        -1.393282         0.042455
 H         1.824453         0.625469        -0.469458
 H         1.921415        -1.149764         0.041886
 H         1.419643        -0.543650        -1.633719
 H        -3.096397         0.691483        -0.501013
 H        -1.848020         2.337055         1.086808
 H        -2.777420        -1.315967         1.478857
 H        -3.065969        -0.003712         2.595578
 H        -5.826647         0.785008         2.167834
 H        -6.931895        -0.388757         1.486957
 H        -6.141622        -0.835746         2.874254
