19
Iteration:  2254charge 0 multiplicity 1
 C         0.764841        -1.112426        -0.044557
 C        -0.483099        -0.496908         0.264384
 C        -1.463960         0.136853         0.433696
 C        -2.615012         1.008428         0.245770
 O        -2.413963         2.415117         0.060842
 C        -3.804019         0.751499         1.284837
 C        -4.570424        -0.584944         1.134473
 C        -3.937888        -1.816242         1.792069
 O        -5.627881        -0.681563         0.533514
 H         1.566758        -0.482799         0.454678
 H         0.880926        -2.185695         0.174220
 H         1.010774        -0.863129        -1.092923
 H        -2.953952         0.633395        -0.769573
 H        -1.664570         2.548347         0.617720
 H        -3.412353         0.704203         2.324339
 H        -4.425882         1.633660         1.120180
 H        -4.644210        -2.564619         2.114116
 H        -3.202594        -2.177008         1.080662
 H        -3.477479        -1.424716         2.659452
