19
Iteration:   127charge 0 multiplicity 1
 C         1.519784         0.099640         0.076222
 C         0.069982         0.094651         0.081575
 C        -1.108088        -0.163865        -0.136320
 C        -2.566900        -0.034260         0.000203
 O        -2.971664         1.270637        -0.407372
 C        -3.151416        -0.510820         1.379902
 C        -4.750115        -0.345827         1.492178
 C        -5.605513        -1.564741         1.524941
 O        -5.251821         0.792445         1.557486
 H         1.899176         0.464436         1.104826
 H         2.009811        -0.898558        -0.140349
 H         1.878088         0.966790        -0.536052
 H        -3.048625        -0.647017        -0.872448
 H        -3.616676         1.658606         0.381330
 H        -2.791337        -1.639950         1.325799
 H        -2.664779         0.042080         2.175669
 H        -5.496958        -2.001814         2.616052
 H        -6.684566        -1.325866         1.185210
 H        -5.087611        -2.316160         0.866662
