19
Iteration:  2294
 C         0.680356        -1.140293         0.035846
 C        -0.431018        -0.283398         0.229817
 C        -1.590026         0.076196         0.217698
 C        -2.747775         0.904960         0.266783
 O        -2.440112         2.343293        -0.014118
 C        -3.774082         0.783624         1.478257
 C        -4.526517        -0.533442         1.241889
 C        -3.884722        -1.955583         1.774735
 O        -5.449852        -0.517930         0.429433
 H         1.469603        -0.820936         0.744627
 H         0.428609        -2.139344         0.390357
 H         1.099557        -1.240798        -0.961299
 H        -3.358045         0.721295        -0.587746
 H        -1.659509         2.781185         0.476067
 H        -3.179512         0.776161         2.428835
 H        -4.490837         1.616869         1.433554
 H        -4.089386        -2.888462         1.205334
 H        -2.786403        -1.826628         1.905701
 H        -4.210621        -2.207578         2.888452
