19
Iteration:   295
 C         1.375385        -0.478676        -0.027352
 C        -0.009246        -0.267295         0.148628
 C        -1.117500         0.200000         0.016574
 C        -2.563970         0.520376         0.094566
 O        -2.959261         1.902299        -0.057175
 C        -3.254550        -0.112875         1.495681
 C        -4.667138        -0.510765         1.329855
 C        -5.183354        -1.751851         1.858725
 O        -5.507811         0.147152         0.751166
 H         1.910750         0.095518         0.755795
 H         1.685506        -1.537673         0.006042
 H         1.646303         0.165310        -0.902902
 H        -3.062990        -0.002071        -0.709194
 H        -2.162075         2.290014         0.256595
 H        -2.666384        -0.951802         1.726095
 H        -3.128292         0.683682         2.260662
 H        -4.686357        -2.153580         2.753597
 H        -6.261528        -1.729152         2.132791
 H        -5.060147        -2.628951         1.133488
