19
Iteration:  1560
 C         0.665816        -0.984158        -0.123425
 C        -0.515132        -0.300295         0.196653
 C        -1.510526         0.324579         0.287470
 C        -2.769236         0.972556         0.270245
 O        -2.484104         2.412138         0.704136
 C        -3.808377         0.595346         1.263763
 C        -4.327561        -0.747725         0.970532
 C        -4.745262        -1.467499         2.168983
 O        -4.620359        -1.199100        -0.090728
 H         0.876942        -0.457596        -1.038132
 H         1.591532        -0.795352         0.458592
 H         0.519155        -2.035462        -0.523074
 H        -3.113230         1.041531        -0.842239
 H        -2.045633         3.049956         0.159865
 H        -3.344867         0.772482         2.240234
 H        -4.610728         1.293708         1.037058
 H        -5.526285        -0.964096         2.730043
 H        -4.860284        -2.540856         2.108628
 H        -3.955583        -1.316370         2.960481
