19
Iteration:  2715charge 0 multiplicity 1
 C         0.205489        -1.560966        -0.134214
 C        -0.824326        -0.516801        -0.002849
 C        -1.693434         0.292689         0.017829
 C        -2.824701         1.198363         0.109825
 O        -2.504877         2.620391         0.200039
 C        -3.430296         0.697196         1.540551
 C        -4.246905        -0.598594         1.291337
 C        -4.205753        -1.560734         2.362898
 O        -4.675293        -0.854991         0.190382
 H         0.759451        -1.848119         0.718913
 H        -0.211874        -2.469079        -0.538619
 H         0.900797        -1.131334        -0.844939
 H        -3.553489         0.953113        -0.634027
 H        -1.542892         2.620573         0.284920
 H        -2.695940         0.817633         2.313478
 H        -4.248263         1.465318         1.730440
 H        -3.538396        -1.314175         3.255898
 H        -5.188907        -1.974880         2.775433
 H        -3.832768        -2.576193         1.968317
