19
Iteration:  2080charge 0 multiplicity 1
 C         0.422992        -1.363983         0.392800
 C        -0.570016        -0.386174         0.209797
 C        -1.620148         0.252124         0.112484
 C        -2.833832         1.112876         0.232948
 O        -2.455290         2.551023         0.186427
 C        -3.741859         0.781717         1.426937
 C        -4.414709        -0.549225         1.136299
 C        -3.619757        -1.894344         1.557353
 O        -5.357414        -0.783465         0.398929
 H         1.361579        -0.900963         0.670377
 H         0.246173        -2.083703         1.171642
 H         0.460351        -1.912442        -0.535096
 H        -3.426031         0.977046        -0.670230
 H        -1.489746         2.654598        -0.106946
 H        -3.211610         0.540146         2.329123
 H        -4.387796         1.615973         1.687320
 H        -2.814803        -1.780783         0.756476
 H        -3.266325        -1.796757         2.629642
 H        -4.240890        -2.826423         1.394561
