19
Iteration:  2641charge 0 multiplicity 1
 C         0.121863        -1.493185         0.063019
 C        -0.840811        -0.480896        -0.298018
 C        -1.673540         0.335921        -0.099613
 C        -2.794741         1.268695         0.201821
 O        -2.225339         2.680221         0.270225
 C        -3.785923         0.903902         1.463643
 C        -4.236970        -0.664664         1.281685
 C        -4.066703        -1.677260         2.356895
 O        -4.762315        -1.126447         0.216660
 H         0.514105        -1.538354         1.100566
 H        -0.367613        -2.497388        -0.170426
 H         1.001214        -1.475739        -0.672869
 H        -3.540735         1.291421        -0.690849
 H        -1.285789         2.503851         0.655711
 H        -3.070425         1.027121         2.363290
 H        -4.571607         1.699766         1.426993
 H        -3.060848        -2.155193         2.230212
 H        -4.010863        -1.337014         3.341001
 H        -4.754357        -2.492481         2.488173
