19
Iteration:  3273charge 0 multiplicity 1
 C         0.479531        -1.305202        -0.807297
 C        -0.583709        -0.442533        -0.244262
 C        -1.494264         0.185572         0.180574
 C        -2.730077         0.926222         0.345955
 O        -2.612078         2.351199         0.261025
 C        -3.432036         0.660585         1.653624
 C        -4.296792        -0.525203         1.360473
 C        -5.233049        -0.945570         2.537876
 O        -4.170770        -1.191885         0.360357
 H         0.506939        -2.257790        -0.315569
 H         0.113516        -1.465634        -1.836306
 H         1.480327        -0.810331        -0.864168
 H        -3.364042         0.627086        -0.480097
 H        -2.058086         2.546284        -0.521662
 H        -2.707693         0.309177         2.432988
 H        -4.027026         1.469070         2.123020
 H        -4.623928        -1.642223         3.171775
 H        -5.506254        -0.112887         3.201186
 H        -6.049914        -1.681307         2.340441
