19
Iteration:  4717charge 0 multiplicity 1
 C         0.571148        -1.188581        -0.591659
 C        -0.706950        -0.581194        -0.252852
 C        -1.684394         0.105198        -0.242678
 C        -2.748455         1.108132         0.062182
 O        -2.311905         2.430497         0.430256
 C        -3.458163         0.686577         1.423477
 C        -4.289436        -0.616336         1.356778
 C        -5.042278        -1.021234         2.848695
 O        -4.503780        -1.341866         0.437838
 H         1.480386        -0.721405        -0.081145
 H         0.553854        -2.265142        -0.414993
 H         0.783582        -1.047433        -1.634507
 H        -3.470664         1.183198        -0.676857
 H        -1.734928         2.784507        -0.213531
 H        -2.722844         0.679260         2.253998
 H        -4.092336         1.469288         1.783325
 H        -4.426681        -1.241012         3.724606
 H        -5.605449        -0.106685         3.097606
 H        -5.667994        -1.900604         2.537454
