19
Iteration:   672charge 0 multiplicity 1
 C         1.224430        -0.331102        -0.589403
 C        -0.116559        -0.160621        -0.133414
 C        -1.207942         0.211804         0.246438
 C        -2.566451         0.616441         0.471192
 O        -2.623655         2.030542         0.899662
 C        -3.262177        -0.275457         1.518165
 C        -4.691905        -0.679053         1.081670
 C        -5.873340        -0.357284         1.867788
 O        -4.786117        -1.378790         0.103364
 H         1.929302         0.566291        -0.433682
 H         1.669123        -1.191641        -0.031985
 H         1.307181        -0.552433        -1.670420
 H        -3.043840         0.624524        -0.534048
 H        -2.971472         2.094205         1.898655
 H        -2.611829        -1.163509         1.695700
 H        -3.278816         0.169331         2.575032
 H        -6.294905         0.648798         2.055866
 H        -6.724776        -0.952808         1.537745
 H        -5.755328        -0.815389         2.827493
