19
Iteration:  1672charge 0 multiplicity 1
 C         0.466297        -1.267749         0.138293
 C        -0.709260        -0.318540         0.156913
 C        -1.746560         0.336418        -0.085666
 C        -2.882046         1.190475         0.248630
 O        -2.588609         2.637806         0.510605
 C        -3.510114         0.559146         1.499003
 C        -4.204203        -0.736059         1.052225
 C        -4.563786        -1.716529         2.051543
 O        -4.429739        -1.002163        -0.120346
 H         1.172860        -0.990436        -0.721823
 H         0.923522        -1.229392         1.130780
 H         0.089457        -2.294410         0.029925
 H        -3.807173         1.187336        -0.469631
 H        -1.861459         2.748797         1.240491
 H        -2.635172         0.420556         2.168734
 H        -4.132211         1.304869         2.013746
 H        -5.131003        -2.555589         1.655142
 H        -3.713771        -2.003727         2.677467
 H        -5.079916        -1.129540         2.790360
