19
Iteration:  1362
 C         0.925481        -0.887785        -0.018307
 C        -0.249972         0.000275         0.001679
 C        -1.322208         0.528632         0.116917
 C        -2.719549         0.925216         0.244462
 O        -2.760194         2.333495         0.471380
 C        -3.267107         0.179032         1.421892
 C        -4.461075        -0.825331         1.079069
 C        -5.387852        -1.271190         2.298055
 O        -4.642822        -1.179411        -0.063490
 H         1.555928        -0.678015        -0.924026
 H         1.632017        -0.872610         0.906632
 H         0.698634        -2.043149         0.008097
 H        -3.311996         0.665656        -0.696369
 H        -3.616522         2.498614        -0.085621
 H        -2.506802        -0.481941         1.901513
 H        -3.676677         0.852383         2.220468
 H        -5.181057        -2.291463         2.590657
 H        -5.141322        -0.700548         3.225224
 H        -6.473755        -1.016239         2.101791
