19
Iteration:  2414
 C         0.412675        -1.364562         0.254058
 C        -0.541198        -0.230746         0.042198
 C        -1.628567         0.304817        -0.205922
 C        -2.865715         1.132974         0.068064
 O        -2.408630         2.448254         0.179267
 C        -3.651171         0.725710         1.419459
 C        -4.388721        -0.706909         1.266641
 C        -3.831544        -1.869516         2.081538
 O        -5.273694        -0.681968         0.401466
 H         1.039208        -1.325456         1.108520
 H        -0.154567        -2.268522         0.209896
 H         1.105406        -1.358428        -0.562769
 H        -3.526551         1.022498        -0.744673
 H        -1.532850         2.395186         0.548606
 H        -2.915467         0.693437         2.224599
 H        -4.354261         1.499032         1.528279
 H        -3.032441        -1.732288         2.819801
 H        -4.716833        -2.265874         2.559602
 H        -3.357142        -2.614757         1.407381
