19
Iteration:  3436
 C         0.377142        -1.136363        -0.155748
 C        -0.980519        -0.633015        -0.366737
 C        -1.909438         0.152431        -0.179424
 C        -2.853465         1.265774         0.134633
 O        -1.969020         2.417068         0.324639
 C        -3.575652         0.843513         1.450692
 C        -4.291768        -0.638139         1.308786
 C        -4.631259        -1.321081         2.696530
 O        -4.536474        -1.306611         0.284237
 H         0.387569        -2.170528         0.055258
 H         0.963393        -1.161914        -1.043948
 H         0.931324        -0.560406         0.586264
 H        -3.642055         1.493167        -0.702630
 H        -1.675729         2.756987        -0.526345
 H        -2.709273         0.621838         2.140579
 H        -4.171661         1.609858         1.799071
 H        -3.633462        -1.424240         3.133170
 H        -5.345131        -0.855079         3.373323
 H        -4.897141        -2.305433         2.282301
