19
Iteration:   544
 C         1.198444        -0.546519        -0.539936
 C        -0.190155        -0.165977        -0.114050
 C        -1.267434         0.279775         0.215337
 C        -2.630371         0.693602         0.507351
 O        -2.714553         2.108274         0.779653
 C        -3.239324        -0.084253         1.617248
 C        -4.597344        -0.712356         1.064540
 C        -5.686559        -0.789458         2.093194
 O        -4.813525        -1.093730        -0.085569
 H         1.989201         0.059700        -0.116516
 H         1.257001        -1.569453        -0.183687
 H         1.254135        -0.621473        -1.606629
 H        -3.207916         0.410154        -0.409708
 H        -1.766651         2.422433         1.102615
 H        -2.810733        -0.977641         2.154713
 H        -3.599724         0.542760         2.368484
 H        -6.220008         0.138752         2.338577
 H        -6.518318        -1.325438         1.642734
 H        -5.242041        -1.241564         2.990732
