19
Iteration:  3593charge 0 multiplicity 1
 C         0.387028        -1.597177        -0.347266
 C        -0.477419        -0.418622         0.089747
 C        -1.503715         0.260306         0.138112
 C        -2.790116         1.033978         0.257417
 O        -2.553193         2.416400         0.074779
 C        -3.767516         0.819740         1.394733
 C        -4.324084        -0.530813         1.335341
 C        -4.142050        -1.394248         2.477196
 O        -4.901864        -0.879636         0.294964
 H        -0.419654        -2.248060        -0.745136
 H         1.010916        -1.411233        -1.236207
 H         0.934555        -2.027097         0.441751
 H        -3.366470         0.672459        -0.719838
 H        -1.750107         2.584543        -0.351377
 H        -3.341649         1.103514         2.332409
 H        -4.588838         1.499525         1.225379
 H        -3.194533        -1.980295         2.446708
 H        -3.898000        -0.594032         3.265951
 H        -4.966025        -2.072755         2.792989
