19
Iteration:  3124
 C         0.747576        -1.050575        -0.607673
 C        -0.568907        -0.411101        -0.561325
 C        -1.525168         0.213349        -0.217005
 C        -2.659650         1.084029         0.143040
 O        -2.139847         2.353613         0.384816
 C        -3.581824         0.561037         1.445363
 C        -4.579874        -0.582797         1.367886
 C        -5.230050        -1.080145         2.837431
 O        -4.666450        -1.393118         0.530662
 H         0.722649        -1.625867         0.347437
 H         1.074970        -1.636194        -1.484129
 H         1.485003        -0.273562        -0.408136
 H        -3.322522         1.137580        -0.652311
 H        -1.237114         2.261836         0.573143
 H        -2.930680         0.210426         2.222818
 H        -4.104254         1.489670         1.786550
 H        -4.775324        -0.610422         3.739626
 H        -6.278265        -0.746079         3.030091
 H        -5.217415        -2.214029         2.806981
