19
Iteration:  2385charge 0 multiplicity 1
 C         0.449375        -1.270275         0.298245
 C        -0.582421        -0.247140         0.033086
 C        -1.674522         0.266092        -0.146071
 C        -2.832030         1.139344         0.085645
 O        -2.465480         2.431858         0.131839
 C        -3.404928         0.679985         1.357775
 C        -4.329347        -0.651797         1.212702
 C        -3.959971        -1.963689         1.973254
 O        -5.336079        -0.667600         0.502174
 H         1.018213        -0.989081         1.255130
 H         0.000125        -2.262504         0.519400
 H         1.197407        -1.320062        -0.533826
 H        -3.606358         0.986398        -0.711658
 H        -1.626277         2.541923         0.747630
 H        -2.618370         0.687823         2.151038
 H        -4.060299         1.586427         1.635705
 H        -2.883889        -1.929040         2.221612
 H        -4.622233        -1.908628         2.862589
 H        -4.262469        -2.848550         1.433353
