19
Iteration:    68charge 0 multiplicity 1
 C         1.469251         0.242626         0.084257
 C         0.072923        -0.080533         0.007816
 C        -1.150254        -0.164378         0.002285
 C        -2.616454        -0.168379         0.031072
 O        -3.145545         1.098243        -0.625743
 C        -3.169417        -0.486818         1.532016
 C        -4.632520        -0.225949         1.557411
 C        -5.486651        -1.492586         1.220553
 O        -5.152929         0.879454         1.827230
 H         1.688236         0.475598         1.108625
 H         2.171757        -0.528120        -0.234972
 H         1.641626         1.168634        -0.527982
 H        -3.074112        -0.894905        -0.619929
 H        -2.908878         1.721936         0.111768
 H        -3.024846        -1.513769         1.626804
 H        -2.622753         0.046635         2.379308
 H        -5.267876        -2.428516         1.682772
 H        -6.517335        -1.241828         1.424713
 H        -5.442052        -1.734093         0.141017
