19
Iteration:  4389charge 0 multiplicity 1
 C         0.440852        -1.483626        -0.061637
 C        -0.575754        -0.535466         0.495003
 C        -1.442815         0.273931         0.187337
 C        -2.674103         1.041382        -0.041994
 O        -2.451256         2.455949        -0.018143
 C        -3.675992         0.814924         1.194388
 C        -4.485172        -0.540617         1.193532
 C        -3.631396        -1.674702         1.865036
 O        -5.624330        -0.682285         0.907357
 H         1.417744        -0.967939        -0.427058
 H         0.615012        -2.246774         0.713988
 H        -0.045383        -1.984432        -0.881731
 H        -3.225262         0.683059        -0.827637
 H        -1.553392         2.599020        -0.202474
 H        -2.974844         0.966036         2.090429
 H        -4.399435         1.668410         1.058815
 H        -2.842314        -1.879601         1.093192
 H        -3.274779        -1.227714         2.804920
 H        -4.281055        -2.539119         1.904713
