19
Iteration:  3178
 C         0.587546        -1.055149        -0.574217
 C        -0.587961        -0.314755        -0.289590
 C        -1.739543         0.118174        -0.245654
 C        -2.824106         0.944227         0.126518
 O        -2.246679         2.263126         0.629263
 C        -3.442325         0.459715         1.398231
 C        -4.314042        -0.725570         1.310141
 C        -5.036897        -0.710159         2.671967
 O        -4.574839        -1.401791         0.398978
 H         0.791136        -1.924468         0.105306
 H         0.421604        -1.309042        -1.664503
 H         1.370882        -0.272975        -0.682338
 H        -3.665511         1.069086        -0.566640
 H        -1.430511         2.294466         0.215262
 H        -2.791681         0.507949         2.216520
 H        -4.134389         1.355049         1.633546
 H        -4.324462        -0.420266         3.439695
 H        -5.677947         0.145914         2.523493
 H        -5.383901        -1.672062         3.074787
