19
Iteration:    16
 C         1.500313         0.209221         0.029221
 C         0.017366         0.079185         0.116659
 C        -1.157932        -0.230323         0.030738
 C        -2.637780        -0.291242         0.100758
 O        -3.298971         0.834724        -0.599293
 C        -3.114735        -0.179076         1.508774
 C        -4.606586        -0.166983         1.451600
 C        -5.471278        -1.252794         0.902329
 O        -5.097542         0.710304         2.172743
 H         2.052905         0.233696         0.974082
 H         1.832356        -0.734603        -0.451535
 H         1.824763         1.096271        -0.579192
 H        -3.051343        -1.249069        -0.375575
 H        -2.471066         1.044971        -1.175438
 H        -2.765505        -1.033111         2.034104
 H        -2.815084         0.808281         1.958592
 H        -4.936509        -2.170669         1.142836
 H        -6.452157        -1.125448         1.362700
 H        -5.524691        -1.413257        -0.183544
