19
Iteration:   402charge 0 multiplicity 1
 C         1.202378        -0.680966        -0.104500
 C        -0.147315        -0.192908         0.018219
 C        -1.279326         0.252794         0.022225
 C        -2.596189         0.735297         0.219174
 O        -2.772242         2.185811         0.478674
 C        -3.252998        -0.040973         1.350371
 C        -4.598501        -0.680211         1.150425
 C        -5.239689        -1.576195         2.262561
 O        -5.275370        -0.342254         0.170608
 H         1.872610        -0.171499         0.646917
 H         1.312392        -1.777617         0.070377
 H         1.640071        -0.556493        -1.115943
 H        -3.215631         0.528581        -0.732072
 H        -2.398562         2.531511        -0.395812
 H        -2.321774        -0.734332         1.644102
 H        -3.333758         0.489742         2.305476
 H        -5.408451        -1.054142         3.229077
 H        -6.215992        -1.991948         1.951802
 H        -4.520401        -2.361055         2.497322
