19
Iteration:  4829
 C         0.626978        -1.099939        -0.770248
 C        -0.618487        -0.476053        -0.418199
 C        -1.673660         0.134962        -0.178539
 C        -2.757239         0.959478         0.301724
 O        -2.516835         2.412188         0.394805
 C        -3.235111         0.373051         1.571251
 C        -4.278977        -0.671432         1.410746
 C        -5.300429        -0.555883         2.593808
 O        -4.379452        -1.492842         0.534415
 H         1.416787        -0.725984        -0.049075
 H         0.508653        -2.187583        -0.677989
 H         0.889083        -0.820590        -1.828662
 H        -3.524753         0.887029        -0.450571
 H        -1.553892         2.708588         0.587454
 H        -2.477196        -0.297864         1.925797
 H        -3.467177         1.180961         2.313636
 H        -4.822835        -0.259180         3.546978
 H        -6.032938         0.362743         2.444317
 H        -6.008429        -1.372084         2.706759
