19
Iteration:  2886
 C         0.585763        -1.066080        -0.334238
 C        -0.574779        -0.239075        -0.415164
 C        -1.761615        -0.018866        -0.146576
 C        -2.830735         0.924779         0.157620
 O        -2.180034         2.184890         0.251511
 C        -3.567786         0.607868         1.530861
 C        -4.397219        -0.586504         1.339033
 C        -4.692753        -1.300357         2.733330
 O        -4.794824        -0.835382         0.276285
 H         0.727224        -1.593265         0.684601
 H         0.572045        -1.866997        -1.117510
 H         1.484691        -0.412320        -0.440759
 H        -3.642022         0.958597        -0.680486
 H        -1.361890         1.963448         0.621481
 H        -2.937619         0.562001         2.482561
 H        -4.296868         1.404729         1.838761
 H        -5.115227        -0.506643         3.299973
 H        -5.439337        -2.091270         2.759712
 H        -3.790255        -1.690081         3.220143
