19
Iteration:  2331
 C         0.669118        -1.136262         0.169317
 C        -0.651124        -0.547999         0.134095
 C        -1.558444         0.232826         0.060092
 C        -2.797841         0.972153         0.131450
 O        -2.594071         2.409252         0.084907
 C        -3.580390         0.765485         1.476843
 C        -4.356825        -0.588243         1.202313
 C        -3.925630        -1.918484         1.826404
 O        -5.374213        -0.534345         0.467043
 H         1.169358        -0.603709         1.059459
 H         0.535521        -2.165816         0.608770
 H         1.297685        -1.143048        -0.758776
 H        -3.405724         0.639165        -0.786519
 H        -1.680588         2.491185         0.591835
 H        -2.751057         0.502793         2.181221
 H        -3.938374         1.760182         1.847400
 H        -3.459363        -2.539837         1.038055
 H        -3.275204        -1.842653         2.746245
 H        -4.891274        -2.247944         2.140955
