19
Iteration:  3856
 C         0.389310        -1.474222         0.012335
 C        -0.719325        -0.564148         0.340939
 C        -1.578715         0.297186         0.385532
 C        -2.786212         1.112575         0.126682
 O        -2.357148         2.353044        -0.389454
 C        -3.744905         0.913243         1.395134
 C        -4.306036        -0.564059         1.348575
 C        -3.557597        -1.782274         1.740257
 O        -5.427440        -0.604297         0.855798
 H         0.492436        -1.875433        -1.077153
 H         1.368114        -1.054098         0.293900
 H         0.411246        -2.350200         0.632072
 H        -3.284252         0.645153        -0.647359
 H        -3.079208         3.070571        -0.394797
 H        -3.257115         1.278547         2.292716
 H        -4.645776         1.557816         1.257580
 H        -3.084437        -2.249947         0.905035
 H        -2.743093        -1.593692         2.463053
 H        -4.273268        -2.468375         2.144439
