19
Iteration:  4049charge 0 multiplicity 1
 C         0.830127        -1.273904         0.144818
 C        -0.499748        -0.558942         0.083759
 C        -1.413071         0.236753         0.294514
 C        -2.709504         0.905961         0.202773
 O        -2.417983         2.143139        -0.402936
 C        -3.690458         0.840359         1.466568
 C        -4.529847        -0.469854         1.271133
 C        -3.770416        -1.707412         1.501018
 O        -5.827957        -0.458020         1.124399
 H         1.440336        -1.238171        -0.788187
 H         1.274109        -0.736165         1.010690
 H         0.533169        -2.329133         0.416838
 H        -3.363589         0.356000        -0.375500
 H        -3.052129         2.942864        -0.217376
 H        -3.234551         0.821951         2.462182
 H        -4.249686         1.796512         1.376027
 H        -2.902218        -1.711330         0.651974
 H        -3.100821        -1.697639         2.445746
 H        -4.319846        -2.647570         1.423671
