19
Iteration:   918
 C         1.391174         0.224909         0.326331
 C         0.000961         0.023907         0.008339
 C        -1.201913         0.042502        -0.019255
 C        -2.572355         0.305895        -0.001430
 O        -2.698428         1.526034         0.604928
 C        -3.251944        -0.960351         0.763035
 C        -4.738227        -0.685429         1.054104
 C        -5.144762        -0.154164         2.414206
 O        -5.608001        -0.739679         0.238744
 H         1.721938         1.228912         0.027864
 H         1.563812         0.144730         1.429037
 H         2.051244        -0.579974        -0.139584
 H        -3.193772         0.323199        -0.970678
 H        -3.483239         1.559374         1.266433
 H        -3.299181        -1.770067         0.081984
 H        -2.781321        -1.132102         1.765036
 H        -5.114271         0.871275         2.149616
 H        -6.196461        -0.307598         2.558955
 H        -4.451722        -0.336526         3.293386
