19
Iteration:  4588
 C         0.331375        -1.484553        -0.338532
 C        -0.809114        -0.654251         0.019762
 C        -1.666200         0.214029         0.133102
 C        -2.762380         1.077280         0.171334
 O        -2.484965         2.602918         0.018481
 C        -3.597218         0.814330         1.442847
 C        -4.220798        -0.605779         1.326318
 C        -4.151887        -1.435278         2.603736
 O        -4.763997        -0.921248         0.217449
 H         1.308458        -1.064815        -0.094230
 H         0.182908        -2.462134         0.120815
 H         0.184755        -1.647952        -1.414455
 H        -3.412412         0.920794        -0.769745
 H        -2.004785         2.704028         0.917241
 H        -2.979797         0.880841         2.370944
 H        -4.425121         1.636739         1.409071
 H        -3.134090        -1.525205         2.923950
 H        -4.708573        -0.908780         3.401923
 H        -4.784021        -2.359209         2.552856
