19
Iteration:  2276
 C         0.759035        -1.144798         0.007660
 C        -0.465835        -0.353836         0.200907
 C        -1.544553         0.244401         0.430021
 C        -2.797040         0.973585         0.219787
 O        -2.364643         2.291957        -0.013639
 C        -3.782546         0.750452         1.451183
 C        -4.511001        -0.611318         1.173538
 C        -3.914738        -1.821506         1.752837
 O        -5.524993        -0.618662         0.493684
 H         1.709346        -0.790460         0.530061
 H         0.556807        -2.210881         0.215463
 H         1.017669        -1.088495        -1.075666
 H        -3.360709         0.639212        -0.699635
 H        -1.628080         2.307970         0.675503
 H        -3.171819         0.743157         2.378330
 H        -4.543813         1.541966         1.402753
 H        -4.613323        -2.579703         1.444954
 H        -2.922780        -1.858919         1.335729
 H        -4.028894        -1.721697         2.797272
