19
Iteration:   546charge 0 multiplicity 1
 C         1.205186        -0.545373        -0.542537
 C        -0.188625        -0.176750        -0.118054
 C        -1.258667         0.303547         0.209434
 C        -2.636736         0.696405         0.508556
 O        -2.712036         2.110241         0.789208
 C        -3.252267        -0.105270         1.626313
 C        -4.594728        -0.706688         1.053965
 C        -5.697768        -0.779587         2.090800
 O        -4.807867        -1.100110        -0.081285
 H         2.002495         0.057425        -0.155392
 H         1.297059        -1.580247        -0.182383
 H         1.295697        -0.603969        -1.643116
 H        -3.246775         0.371330        -0.359376
 H        -1.725524         2.415256         0.958997
 H        -2.871423        -0.988565         2.203306
 H        -3.580643         0.560978         2.423243
 H        -6.221880         0.100102         2.309634
 H        -6.508095        -1.326763         1.657897
 H        -5.306286        -1.233926         3.030030
