19
Iteration:  1735charge 0 multiplicity 1
 C         0.416154        -1.330048        -0.015554
 C        -0.645815        -0.287954         0.070509
 C        -1.657543         0.349030         0.222291
 C        -2.816755         1.225338         0.373446
 O        -2.525738         2.636206         0.441919
 C        -3.769972         0.682274         1.413383
 C        -4.255736        -0.682039         1.052495
 C        -4.451449        -1.786689         2.067950
 O        -4.481767        -1.036371        -0.062053
 H         1.225592        -1.109025        -0.635585
 H         0.959349        -1.404590         0.940107
 H         0.112498        -2.382208        -0.240868
 H        -3.482958         1.076164        -0.496982
 H        -1.563942         2.672381         0.826343
 H        -3.420607         0.469915         2.416855
 H        -4.488233         1.500107         1.387174
 H        -3.840379        -2.710819         1.838554
 H        -3.928889        -1.537184         3.019165
 H        -5.544737        -2.010568         2.152817
