19
Iteration:   235charge 0 multiplicity 1
 C         1.462735        -0.300576         0.057537
 C         0.065197         0.055048        -0.019167
 C        -1.145407         0.105959         0.053854
 C        -2.656384         0.153146         0.058913
 O        -2.957353         1.598305        -0.018654
 C        -3.183246        -0.253770         1.378380
 C        -4.717729        -0.400004         1.273988
 C        -5.282123        -1.747033         1.794601
 O        -5.483875         0.507297         1.041949
 H         1.809226         0.035002         1.053148
 H         1.686161        -1.376935        -0.026562
 H         2.078721         0.049612        -0.765963
 H        -2.966339        -0.470056        -0.756257
 H        -2.636169         1.833555        -0.955914
 H        -2.710458        -1.218059         1.763164
 H        -2.955019         0.440446         2.157524
 H        -4.583360        -2.070456         2.549985
 H        -6.336076        -1.709072         2.060831
 H        -5.146203        -2.339132         0.902001
