19
Iteration:  2203
 C         0.819922        -1.103145         0.070900
 C        -0.399515        -0.349696         0.126178
 C        -1.547913         0.112178         0.264111
 C        -2.697533         1.002562         0.138101
 O        -2.266524         2.365914         0.326261
 C        -3.823001         0.774782         1.088703
 C        -4.601078        -0.597133         1.032642
 C        -3.870203        -1.758780         1.788079
 O        -5.741815        -0.783837         0.675948
 H         1.658484        -0.689846         0.594484
 H         0.558808        -2.053459         0.560146
 H         1.165452        -1.314488        -0.960837
 H        -2.872515         0.935536        -0.923005
 H        -1.874290         2.265954         1.199899
 H        -3.554744         1.132996         2.058978
 H        -4.529617         1.504997         0.661184
 H        -4.320148        -1.577806         2.828613
 H        -4.209256        -2.763755         1.362114
 H        -2.760287        -1.531818         2.000275
