19
Iteration:   600
 C         1.172894        -0.489076        -0.627799
 C        -0.081708        -0.011985        -0.167631
 C        -1.210441         0.165535         0.246553
 C        -2.553558         0.658750         0.486926
 O        -2.586638         2.079856         0.837517
 C        -3.315760        -0.149615         1.592879
 C        -4.673361        -0.645622         1.161895
 C        -5.881901        -0.604023         1.877284
 O        -4.748215        -1.249528         0.079228
 H         1.939207         0.226215        -0.395727
 H         1.494700        -1.430712        -0.200555
 H         1.237374        -0.533165        -1.717745
 H        -3.180388         0.337480        -0.365170
 H        -2.895718         2.119470         1.840537
 H        -2.784573        -1.081962         1.921621
 H        -3.464247         0.284731         2.546808
 H        -6.599552         0.189503         1.751905
 H        -6.363848        -1.546428         1.645170
 H        -5.753035        -0.771644         2.980036
