19
Iteration:  1409
 C         0.914257        -0.962417         0.035426
 C        -0.288457        -0.097133        -0.081694
 C        -1.354779         0.454249        -0.022211
 C        -2.665332         1.095508         0.176796
 O        -2.823671         2.509492         0.603350
 C        -3.386518         0.242338         1.397075
 C        -4.414605        -0.903290         1.085448
 C        -5.299136        -1.353249         2.287801
 O        -4.644908        -1.273255        -0.052936
 H         1.710821        -0.938412        -0.703578
 H         1.401740        -0.805203         1.031263
 H         0.580209        -2.033813         0.160764
 H        -3.260007         0.872672        -0.693962
 H        -2.224831         3.085809         0.135802
 H        -2.606889        -0.156949         2.083488
 H        -3.955408         0.970160         2.049056
 H        -4.688191        -1.921466         3.024135
 H        -5.553765        -0.533704         2.985140
 H        -6.238120        -1.850846         2.073165
