19
Iteration:  2369charge 0 multiplicity 1
 C         0.573565        -1.221776         0.334475
 C        -0.649782        -0.483460         0.008712
 C        -1.616061         0.272882        -0.139088
 C        -2.820246         1.134462         0.083099
 O        -2.490924         2.604444         0.062536
 C        -3.501399         0.622194         1.469354
 C        -4.328287        -0.656939         1.177855
 C        -3.946397        -1.988501         1.991020
 O        -5.382862        -0.591591         0.491704
 H         1.113309        -0.796971         1.140930
 H         0.293869        -2.260236         0.487224
 H         1.320707        -1.266392        -0.453645
 H        -3.498594         1.051933        -0.757751
 H        -1.675620         2.674104         0.596402
 H        -2.733273         0.204150         2.099599
 H        -4.182708         1.341801         1.860122
 H        -2.916560        -2.381326         1.977291
 H        -4.134325        -1.813386         3.047119
 H        -4.443522        -2.894092         1.529746
