19
Iteration:   471charge 0 multiplicity 1
 C         1.242185        -0.698021        -0.291631
 C        -0.117523        -0.183629        -0.139900
 C        -1.190374         0.354524         0.101549
 C        -2.658499         0.817799         0.362727
 O        -2.738788         2.225617         0.664422
 C        -3.265743        -0.035484         1.437572
 C        -4.604242        -0.766949         1.100211
 C        -5.511115        -1.210079         2.242565
 O        -5.114637        -0.811281         0.014765
 H         1.932379        -0.140363         0.366978
 H         1.232342        -1.783240         0.021176
 H         1.562741        -0.745887        -1.392575
 H        -3.210692         0.493756        -0.526751
 H        -1.756691         2.579042         0.590703
 H        -2.549901        -0.787696         1.810141
 H        -3.364824         0.694895         2.347657
 H        -5.771521        -0.475178         3.014753
 H        -6.458988        -1.582330         1.816771
 H        -4.978922        -2.034241         2.833424
