19
Iteration:   154
 C         1.541349         0.042422         0.065574
 C         0.052256        -0.033327         0.071106
 C        -1.189903        -0.004993         0.100021
 C        -2.683412         0.016457        -0.075292
 O        -3.044618         1.369246        -0.286539
 C        -3.206111        -0.534658         1.304261
 C        -4.714825        -0.345985         1.437863
 C        -5.488011        -1.654225         1.596290
 O        -5.219185         0.758001         1.440481
 H         1.969579         0.393948         0.979053
 H         1.976330        -0.921542        -0.122980
 H         1.872543         0.816454        -0.616787
 H        -2.985001        -0.592522        -0.944287
 H        -2.251443         1.852582        -0.766177
 H        -2.891070        -1.537340         1.296935
 H        -2.697488         0.109753         2.068624
 H        -5.400596        -1.745565         2.658794
 H        -6.486912        -1.507852         1.262885
 H        -4.920847        -2.522309         1.263215
