19
Iteration:  4704charge 0 multiplicity 1
 C         0.583720        -1.280331        -0.698433
 C        -0.648565        -0.606745        -0.162430
 C        -1.619854         0.109535        -0.138475
 C        -2.721471         1.107158         0.075647
 O        -2.356109         2.458945         0.442562
 C        -3.629398         0.716531         1.318354
 C        -4.349826        -0.630745         1.517978
 C        -4.937220        -1.056435         2.774671
 O        -4.490442        -1.248098         0.417960
 H         1.453344        -0.781883        -0.080089
 H         0.692769        -2.373929        -0.476557
 H         0.678490        -1.083343        -1.786264
 H        -3.281433         1.066163        -0.833712
 H        -1.856934         2.995916        -0.301718
 H        -2.856253         0.596168         2.133004
 H        -4.237228         1.581119         1.467408
 H        -4.191335        -1.250031         3.606177
 H        -5.659447        -0.292616         3.089510
 H        -5.583059        -1.971652         2.684961
