19
Iteration:  3222charge 0 multiplicity 1
 C         0.644512        -1.242698        -0.685991
 C        -0.566251        -0.430459        -0.487847
 C        -1.574139         0.221170        -0.153991
 C        -2.702458         1.010971         0.242732
 O        -2.362294         2.448706         0.385218
 C        -3.366958         0.616686         1.599549
 C        -4.449210        -0.616235         1.496383
 C        -5.314436        -1.047950         2.602876
 O        -4.429386        -1.318500         0.506169
 H         0.677654        -1.962401         0.185660
 H         0.899230        -1.746002        -1.662780
 H         1.504966        -0.549264        -0.518842
 H        -3.400991         1.020733        -0.664725
 H        -1.977805         2.705581        -0.413162
 H        -2.612482         0.471307         2.350677
 H        -4.016899         1.534775         1.807447
 H        -4.900599        -1.293747         3.572847
 H        -5.981711        -0.266938         2.935333
 H        -5.828054        -1.965508         2.297365
