19
Iteration:    61
 C         1.496453         0.228198         0.052912
 C         0.055268        -0.051433         0.058260
 C        -1.160619        -0.170615        -0.018199
 C        -2.662112        -0.183842         0.018500
 O        -3.097250         1.070524        -0.636258
 C        -3.155106        -0.494863         1.507779
 C        -4.639482        -0.212399         1.624157
 C        -5.467406        -1.438634         1.184753
 O        -5.172809         0.859235         1.850316
 H         1.755830         0.529870         1.105908
 H         2.258331        -0.532433        -0.229701
 H         1.606268         1.209143        -0.458313
 H        -3.098367        -1.089790        -0.534885
 H        -3.514599         1.637749         0.123054
 H        -3.071710        -1.590831         1.712864
 H        -2.648988         0.151888         2.235081
 H        -5.084999        -2.445754         1.534775
 H        -6.505944        -1.101251         1.394122
 H        -5.266169        -1.560839         0.096036
