19
Iteration:   435charge 0 multiplicity 1
 C         1.146268        -0.696347        -0.176719
 C        -0.144600        -0.097396        -0.046163
 C        -1.291647         0.287505         0.023465
 C        -2.644093         0.682612         0.319850
 O        -2.644503         2.096994         0.521579
 C        -3.273909         0.005654         1.437834
 C        -4.667276        -0.605263         1.086807
 C        -5.257916        -1.356024         2.308497
 O        -5.125506        -0.562101        -0.015076
 H         1.936195        -0.234764         0.459141
 H         1.043715        -1.748029         0.148343
 H         1.583537        -0.585750        -1.185891
 H        -3.426788         0.515033        -0.485260
 H        -3.445573         2.337272         1.138480
 H        -2.690517        -0.999255         1.687463
 H        -3.379215         0.479292         2.420112
 H        -5.411983        -0.735743         3.195741
 H        -6.145166        -1.988466         2.110020
 H        -4.420359        -2.050248         2.461274
