19
Iteration:  2296
 C         0.689046        -1.141743         0.042944
 C        -0.450311        -0.281070         0.231191
 C        -1.591716         0.059695         0.197263
 C        -2.741640         0.911209         0.277689
 O        -2.457631         2.349743        -0.016599
 C        -3.762900         0.780025         1.478293
 C        -4.526938        -0.546899         1.230834
 C        -3.871753        -1.958137         1.802484
 O        -5.437908        -0.505723         0.430791
 H         1.544875        -0.837697         0.761643
 H         0.360613        -2.132997         0.397175
 H         1.128988        -1.262934        -0.955197
 H        -3.408638         0.749670        -0.568042
 H        -1.646183         2.753494         0.499869
 H        -3.157015         0.765029         2.435170
 H        -4.492186         1.607312         1.385501
 H        -4.115086        -2.801116         1.132643
 H        -2.810668        -1.755206         1.858926
 H        -4.302146        -2.264535         2.807260
