19
Iteration:  4478charge 0 multiplicity 1
 C         0.227945        -1.531834         0.332891
 C        -0.910108        -0.588752         0.137026
 C        -1.773061         0.171000        -0.285859
 C        -2.929378         1.222129        -0.033871
 O        -2.288235         2.641802         0.152156
 C        -3.569366         0.770051         1.321035
 C        -4.263794        -0.578353         1.264090
 C        -3.504196        -1.673214         2.036683
 O        -5.306840        -0.802537         0.601612
 H         1.165313        -0.855352         0.351117
 H         0.293701        -2.106643         1.282086
 H         0.381913        -2.254271        -0.483712
 H        -3.507396         1.399994        -0.971354
 H        -1.744837         2.776687        -0.589360
 H        -2.768530         0.666392         2.118575
 H        -4.206668         1.663490         1.710189
 H        -2.529294        -2.015446         1.600027
 H        -3.095050        -1.406262         3.040711
 H        -4.106090        -2.590136         2.129903
