19
Iteration:   303
 C         1.360005        -0.487489        -0.031285
 C        -0.038594        -0.243438         0.143908
 C        -1.157283         0.233897         0.062510
 C        -2.574742         0.466823         0.072685
 O        -2.930035         1.922082         0.037159
 C        -3.236532        -0.025992         1.473658
 C        -4.684426        -0.562065         1.233270
 C        -5.163961        -1.820570         1.935103
 O        -5.501272         0.167912         0.702869
 H         1.884443        -0.042625         0.871539
 H         1.690256        -1.551854        -0.109349
 H         1.678199        -0.142187        -1.025429
 H        -3.162867        -0.006211        -0.705938
 H        -2.117758         2.409416        -0.219624
 H        -2.606143        -0.989233         1.774528
 H        -3.038671         0.720227         2.209713
 H        -4.528431        -1.967156         2.860056
 H        -6.239773        -1.666863         1.999405
 H        -5.016582        -2.725940         1.347012
