19
Iteration:  1256charge 0 multiplicity 1
 C         1.317423        -0.433903        -0.192756
 C         0.027255         0.018876         0.120833
 C        -1.167458         0.243813         0.276136
 C        -2.615087         0.598464         0.311535
 O        -2.684173         1.999000         0.226184
 C        -3.492754         0.131824         1.509063
 C        -4.688848        -0.696190         1.189758
 C        -5.468428        -1.256830         2.289195
 O        -5.097868        -0.888937         0.019083
 H         1.570621         0.052991        -1.131372
 H         2.132120        -0.207414         0.495531
 H         1.347547        -1.496872        -0.453374
 H        -3.188828         0.118635        -0.587927
 H        -2.630100         2.281161        -0.756888
 H        -2.856025        -0.339901         2.250220
 H        -3.876089         1.026381         2.068474
 H        -6.496490        -1.181132         1.913276
 H        -5.203037        -2.351507         2.446782
 H        -5.504414        -0.760953         3.295264
