19
Iteration:  2241
 C         0.907483        -1.124810        -0.054492
 C        -0.458513        -0.577590         0.298463
 C        -1.430656         0.154723         0.402836
 C        -2.674332         0.999017         0.126939
 O        -2.409793         2.438538         0.165903
 C        -3.823374         0.838786         1.239514
 C        -4.669439        -0.665029         1.172584
 C        -3.884813        -1.824693         1.820524
 O        -5.690056        -0.662755         0.521690
 H         1.774844        -0.628695         0.501825
 H         1.072422        -2.207713         0.062411
 H         0.875319        -1.045231        -1.152099
 H        -3.191017         0.847968        -0.832854
 H        -1.733618         2.833511         0.837635
 H        -3.351142         1.320145         2.151193
 H        -4.684588         1.464313         0.963136
 H        -4.594837        -2.437972         2.309617
 H        -3.363905        -2.478385         1.170072
 H        -3.109987        -1.493582         2.434860
