19
Iteration:  3582charge 0 multiplicity 1
 C         0.283311        -1.618459        -0.377327
 C        -0.400745        -0.413641         0.058529
 C        -1.365121         0.370600         0.187368
 C        -2.699279         1.002335         0.160162
 O        -2.616921         2.410493         0.128308
 C        -3.767236         0.870899         1.390880
 C        -4.402963        -0.499290         1.353482
 C        -4.170307        -1.405442         2.549918
 O        -4.895177        -0.938838         0.282205
 H        -0.355132        -2.479190        -0.624088
 H         1.020658        -1.421229        -1.168889
 H         0.888267        -2.021382         0.406490
 H        -3.341139         0.524689        -0.698642
 H        -1.981961         2.628553        -0.616869
 H        -3.282253         1.063041         2.328476
 H        -4.423236         1.668167         1.111227
 H        -3.289640        -1.978085         2.186560
 H        -4.018198        -0.909322         3.567025
 H        -5.030105        -2.109996         2.579522
