19
Iteration:   472charge 0 multiplicity 1
 C         1.234723        -0.691046        -0.294464
 C        -0.120280        -0.189169        -0.135013
 C        -1.188696         0.362586         0.092689
 C        -2.648248         0.806718         0.371994
 O        -2.736828         2.226946         0.670882
 C        -3.268759        -0.038010         1.444665
 C        -4.604079        -0.758612         1.097217
 C        -5.507811        -1.207555         2.236403
 O        -5.118429        -0.824713         0.013607
 H         1.958020        -0.144953         0.347463
 H         1.212475        -1.773681         0.017406
 H         1.564252        -0.740518        -1.392103
 H        -3.187979         0.489427        -0.522828
 H        -1.744920         2.593292         0.519076
 H        -2.552835        -0.744807         1.813857
 H        -3.325547         0.687655         2.363013
 H        -5.819583        -0.460306         3.006217
 H        -6.465541        -1.541909         1.805443
 H        -4.999098        -2.033772         2.835867
