19
Iteration:  1295
 C         1.251879        -0.622081        -0.189861
 C        -0.165900        -0.141754         0.030670
 C        -1.239985         0.360969         0.317427
 C        -2.674219         0.716294         0.341910
 O        -2.768976         2.174218         0.227484
 C        -3.460402         0.138367         1.537905
 C        -4.566957        -0.674936         1.173080
 C        -5.512445        -1.292249         2.268944
 O        -4.766172        -0.925512        -0.017888
 H         1.489015        -0.108560        -1.144320
 H         1.845932        -0.354681         0.724384
 H         1.291752        -1.739880        -0.317577
 H        -2.971557         0.171548        -0.556311
 H        -3.492910         2.337291        -0.324839
 H        -2.809852        -0.572093         2.122451
 H        -3.756769         0.952401         2.206914
 H        -6.192974        -2.016579         1.829406
 H        -4.742976        -1.740476         2.898748
 H        -5.945307        -0.541171         2.949614
