19
Iteration:   914
 C         1.392822         0.224054         0.295577
 C         0.028633         0.007856         0.033620
 C        -1.173572         0.036780        -0.049318
 C        -2.605834         0.309701         0.036123
 O        -2.711815         1.531895         0.628129
 C        -3.288998        -0.922984         0.767313
 C        -4.695773        -0.670315         1.047718
 C        -5.151164        -0.151702         2.380624
 O        -5.620619        -0.758028         0.254194
 H         1.784720         1.223907         0.069744
 H         1.531505         0.125297         1.393962
 H         1.990636        -0.583407        -0.148705
 H        -3.083338         0.180799        -0.940277
 H        -3.489293         1.546328         1.187583
 H        -3.172593        -1.793178         0.046418
 H        -2.770499        -1.083894         1.721695
 H        -5.086188         0.934711         2.114720
 H        -6.198999        -0.425965         2.574791
 H        -4.552349        -0.355597         3.229849
