19
Iteration:  2829charge 0 multiplicity 1
 C         0.616362        -1.198498        -0.453866
 C        -0.718837        -0.716660        -0.058153
 C        -1.602473         0.162640        -0.006089
 C        -2.737936         1.096326         0.129630
 O        -2.307599         2.490973         0.248305
 C        -3.551701         0.729579         1.379598
 C        -4.448423        -0.580249         1.287675
 C        -4.503895        -1.465539         2.682620
 O        -4.972841        -0.914487         0.317660
 H         1.010312        -1.714105         0.454560
 H         0.584797        -2.024554        -1.198206
 H         1.304601        -0.418927        -0.800810
 H        -3.366786         1.014928        -0.822273
 H        -1.347392         2.421865         0.568370
 H        -2.853184         0.590624         2.275815
 H        -4.309160         1.482799         1.552823
 H        -5.131145        -0.899154         3.389985
 H        -4.807306        -2.454307         2.391131
 H        -3.515516        -1.368548         3.100725
