19
Iteration:   927
 C         1.399874         0.216028         0.404168
 C        -0.018801         0.076322        -0.036523
 C        -1.226399         0.038830         0.009927
 C        -2.620648         0.210054        -0.102133
 O        -2.682793         1.574063         0.581205
 C        -3.213854        -1.020864         0.759885
 C        -4.813244        -0.719171         1.124447
 C        -5.111933        -0.132986         2.514119
 O        -5.599331        -0.696542         0.136988
 H         1.622746         1.176740        -0.054696
 H         1.573048         0.241002         1.518099
 H         2.174995        -0.435952        -0.121944
 H        -3.033927         0.498471        -1.074504
 H        -3.349272         1.540702         1.359486
 H        -3.313734        -1.906011         0.126951
 H        -2.571950        -1.362579         1.635715
 H        -5.066858         0.938210         2.442856
 H        -6.142074        -0.236944         2.765256
 H        -4.413828        -0.361715         3.324654
