19
Iteration:  2949
 C         0.686541        -1.190759        -0.519109
 C        -0.592378        -0.531075        -0.263714
 C        -1.466996         0.330580        -0.066383
 C        -2.704078         1.045066         0.144149
 O        -2.425093         2.478177         0.257766
 C        -3.299019         0.431649         1.463387
 C        -4.393494        -0.700020         1.352934
 C        -5.024566        -1.177835         2.767538
 O        -4.885303        -1.066291         0.354191
 H         1.182667        -1.762536         0.238845
 H         0.617803        -1.809715        -1.403206
 H         1.258364        -0.329926        -0.743465
 H        -3.393003         0.923394        -0.704483
 H        -1.498674         2.537241         0.509506
 H        -2.449805         0.132845         2.111757
 H        -3.985525         1.151857         1.852871
 H        -4.878091        -0.285592         3.450541
 H        -6.080863        -1.410597         2.574537
 H        -4.550291        -2.048594         3.279565
