19
Iteration:  1519charge 0 multiplicity 1
 C         0.829449        -0.860413        -0.162799
 C        -0.501102        -0.342227         0.039167
 C        -1.574408         0.186853         0.353822
 C        -2.724255         1.048339         0.309703
 O        -2.366864         2.454504         0.480734
 C        -3.977581         0.686669         1.417430
 C        -4.554023        -0.746228         1.061476
 C        -4.914455        -1.633959         2.243132
 O        -4.421364        -1.129460        -0.080770
 H         1.189645        -0.363929        -1.125603
 H         1.525268        -0.483778         0.619217
 H         0.735497        -1.959404        -0.419139
 H        -3.250797         0.821552        -0.595090
 H        -1.406468         2.436033         0.305583
 H        -3.748316         0.785241         2.503004
 H        -4.912881         1.297905         1.199476
 H        -4.978415        -1.160325         3.275459
 H        -5.763918        -2.195645         1.895247
 H        -4.039202        -2.266909         2.307957
