19
Iteration:  4425
 C         0.400180        -1.600184         0.174882
 C        -0.602273        -0.610092        -0.092926
 C        -1.520190         0.187802         0.254256
 C        -2.822683         1.112997         0.138734
 O        -2.475454         2.448348         0.036109
 C        -3.810694         0.981498         1.325609
 C        -4.412899        -0.491628         1.275032
 C        -3.461808        -1.625188         1.767490
 O        -5.449753        -0.710409         0.758807
 H         1.501127        -1.370166         0.244423
 H         0.147453        -1.978579         1.208442
 H         0.253364        -2.511507        -0.479384
 H        -3.225337         0.870689        -0.770475
 H        -1.862859         2.555003        -0.648405
 H        -3.430809         1.377657         2.254465
 H        -4.708475         1.618230         1.072967
 H        -2.539083        -1.565935         1.152912
 H        -2.968242        -1.433946         2.774319
 H        -3.901637        -2.630978         1.878722
