19
Iteration:  1210
 C         1.491450        -0.152691        -0.142343
 C        -0.031267        -0.136271         0.131498
 C        -1.238034         0.058213         0.219188
 C        -2.624003         0.514782         0.322913
 O        -2.721685         1.970217         0.040874
 C        -3.413923        -0.061399         1.518324
 C        -4.713119        -0.663159         1.090419
 C        -5.390581        -1.186575         2.351186
 O        -5.317420        -0.742620         0.047518
 H         1.974725         0.369231        -0.929967
 H         1.961377         0.139186         0.824114
 H         1.926418        -1.192822        -0.230378
 H        -3.119916         0.192333        -0.684483
 H        -2.037462         2.520567         0.586490
 H        -2.857093        -0.846957         2.112881
 H        -3.575202         0.749882         2.296244
 H        -6.307218        -0.573871         2.468124
 H        -5.694630        -2.289138         2.344190
 H        -4.902143        -1.014372         3.392770
