19
Iteration:  1327
 C         1.109362        -0.770061        -0.103237
 C        -0.254345        -0.200587         0.117130
 C        -1.318473         0.441235         0.150954
 C        -2.620533         0.820820         0.312223
 O        -2.867765         2.292558         0.315304
 C        -3.299208         0.144490         1.518550
 C        -4.436297        -0.709347         1.104847
 C        -5.426663        -1.230116         2.206850
 O        -4.717641        -1.046881        -0.009362
 H         1.497240        -0.273228        -1.082378
 H         1.905721        -0.459878         0.637667
 H         1.132799        -1.865014        -0.349793
 H        -3.270994         0.385666        -0.534890
 H        -3.888753         2.368984         0.352621
 H        -2.629292        -0.409051         2.214154
 H        -3.796255         0.853217         2.204060
 H        -5.624683        -2.292736         1.968100
 H        -4.850438        -1.233251         3.138029
 H        -6.415462        -0.779725         2.370176
