19
Iteration:  4694
 C         0.570148        -1.311754        -0.702225
 C        -0.609305        -0.620362        -0.185658
 C        -1.564499         0.169141        -0.018030
 C        -2.760836         1.020078         0.107563
 O        -2.366067         2.473518         0.451522
 C        -3.662503         0.731959         1.332523
 C        -4.383838        -0.571927         1.413651
 C        -4.900192        -1.076252         2.764869
 O        -4.496080        -1.230215         0.435963
 H         1.584765        -0.904393        -0.346972
 H         0.549441        -2.406318        -0.555805
 H         0.624662        -1.161899        -1.780138
 H        -3.237322         1.011460        -0.818649
 H        -1.986366         2.655811        -0.469872
 H        -3.002898         1.097674         2.136013
 H        -4.460208         1.426955         1.416170
 H        -3.965586        -1.114208         3.364722
 H        -5.534480        -0.315902         3.229865
 H        -5.303616        -2.102945         2.596931
