19
Iteration:  2079charge 0 multiplicity 1
 C         0.418616        -1.363772         0.390576
 C        -0.576504        -0.381315         0.209897
 C        -1.615627         0.252166         0.120157
 C        -2.828864         1.110451         0.229151
 O        -2.460463         2.546754         0.184284
 C        -3.736304         0.783408         1.430238
 C        -4.408771        -0.548509         1.145571
 C        -3.616683        -1.897897         1.557414
 O        -5.361584        -0.782250         0.389757
 H         1.384273        -0.917303         0.673195
 H         0.232440        -2.087513         1.170316
 H         0.448779        -1.921636        -0.529150
 H        -3.403381         1.011783        -0.685802
 H        -1.537094         2.683611        -0.095457
 H        -3.218524         0.527565         2.333423
 H        -4.363730         1.633216         1.671776
 H        -2.822032        -1.799806         0.769467
 H        -3.247948        -1.799199         2.609852
 H        -4.250748        -2.813906         1.417386
