19
Iteration:  4176
 C         0.902892        -1.030059         0.345254
 C        -0.349941        -0.402941        -0.059087
 C        -1.474369         0.038653        -0.183847
 C        -2.761961         0.654744        -0.010575
 O        -2.662973         2.070178        -0.104948
 C        -3.541633         0.639548         1.476484
 C        -4.513980        -0.416346         1.346288
 C        -4.028077        -1.788463         1.584103
 O        -5.654154        -0.123767         1.124359
 H         1.679689        -0.639136        -0.265749
 H         1.186275        -0.867147         1.405162
 H         0.845982        -2.150521         0.255460
 H        -3.364081         0.274152        -0.724365
 H        -1.775882         2.361742        -0.084029
 H        -2.689371         0.737429         2.174733
 H        -4.173633         1.576966         1.387390
 H        -3.142371        -2.110477         1.113311
 H        -3.846230        -1.956317         2.627903
 H        -4.754489        -2.506358         1.339259
