19
Iteration:  2108charge 0 multiplicity 1
 C         0.519334        -1.209790         0.392663
 C        -0.707668        -0.480059         0.174947
 C        -1.681743         0.215644         0.082053
 C        -2.796376         1.143830         0.116627
 O        -2.318758         2.459850         0.302000
 C        -3.805003         0.765904         1.294373
 C        -4.404307        -0.599004         1.066324
 C        -3.557371        -1.917750         1.603115
 O        -5.472656        -0.704719         0.520980
 H         1.412261        -0.547848         0.670193
 H         0.362251        -2.010656         1.168680
 H         0.753016        -1.716002        -0.586037
 H        -3.520314         1.107961        -0.804855
 H        -1.277814         2.514574         0.195319
 H        -3.353798         0.700599         2.341219
 H        -4.574078         1.566401         1.325489
 H        -2.535039        -1.783338         1.479122
 H        -3.869573        -1.870659         2.609417
 H        -3.838971        -2.869367         1.190201
