19
Iteration:  2630
 C         0.152735        -1.548904        -0.007087
 C        -0.796086        -0.416196        -0.243629
 C        -1.725533         0.365733        -0.100840
 C        -2.773999         1.324685         0.256276
 O        -2.219234         2.627582         0.273324
 C        -3.735687         0.848910         1.358757
 C        -4.305719        -0.650712         1.257822
 C        -4.029937        -1.655531         2.430585
 O        -4.778268        -1.128510         0.248790
 H         0.353413        -1.375238         1.067620
 H        -0.435097        -2.520702        -0.054993
 H         1.147794        -1.637851        -0.554643
 H        -3.440969         1.328359        -0.704188
 H        -1.403464         2.602100         0.746556
 H        -3.425520         0.995330         2.465725
 H        -4.726427         1.366342         1.282704
 H        -3.242918        -2.148027         1.850291
 H        -3.693661        -1.301319         3.342136
 H        -4.869679        -2.314037         2.280516
