19
Iteration:  2978charge 0 multiplicity 1
 C         0.633645        -1.306779        -0.576640
 C        -0.274485        -0.167698        -0.380617
 C        -1.434481         0.192624        -0.059495
 C        -2.690450         0.878811         0.305656
 O        -2.584552         2.332588         0.259692
 C        -3.394749         0.531650         1.548978
 C        -4.481091        -0.491748         1.380429
 C        -5.040505        -1.099212         2.713553
 O        -4.758083        -1.113547         0.306224
 H         0.745251        -2.087793         0.211677
 H         0.131953        -1.832937        -1.442887
 H         1.661698        -0.939139        -0.947196
 H        -3.374625         0.655609        -0.498551
 H        -1.745639         2.616707         0.804364
 H        -2.704622         0.065924         2.231207
 H        -3.993311         1.431344         1.958684
 H        -4.690119        -0.344983         3.447782
 H        -6.130960        -1.285085         2.794275
 H        -4.498400        -2.052970         2.705659
