19
Iteration:  1032charge 0 multiplicity 1
 C         1.486724         0.103692         0.375327
 C         0.069907         0.180682         0.131193
 C        -1.134622         0.045493         0.167022
 C        -2.609065         0.140376        -0.037518
 O        -3.093588         1.566021         0.290745
 C        -3.270336        -0.941641         0.815882
 C        -4.678041        -0.594290         1.074752
 C        -5.036576        -0.426827         2.503838
 O        -5.479590        -0.416837         0.213041
 H         1.877182         0.979602        -0.227179
 H         1.852829         0.346276         1.364401
 H         1.924812        -0.794635        -0.005722
 H        -2.890847        -0.095639        -1.141092
 H        -4.116454         1.669369         0.195666
 H        -3.181675        -1.931887         0.276644
 H        -2.868558        -1.164624         1.788177
 H        -4.369807         0.145060         3.277288
 H        -6.067747        -0.016887         2.692809
 H        -5.220229        -1.441674         2.854927
