19
Iteration:  4746charge 0 multiplicity 1
 C         0.497066        -1.097011        -0.450128
 C        -0.732629        -0.365156        -0.557860
 C        -1.759884         0.181635        -0.331581
 C        -2.794712         1.059668         0.173760
 O        -2.222516         2.306355         0.335892
 C        -3.393573         0.466716         1.620793
 C        -4.317993        -0.604858         1.424926
 C        -5.113723        -0.861906         2.734611
 O        -4.415575        -1.386984         0.445841
 H         1.177345        -0.627574         0.315047
 H         0.291627        -2.134251        -0.078825
 H         1.172986        -1.175167        -1.342667
 H        -3.754386         1.137014        -0.478841
 H        -1.413659         2.267450        -0.209666
 H        -2.550522        -0.020889         2.199723
 H        -3.804614         1.266799         2.284491
 H        -4.451762        -1.105792         3.611976
 H        -5.457944         0.151567         2.756944
 H        -5.869669        -1.652739         2.562569
