19
Iteration:  3998
 C         0.654740        -1.085922         0.340097
 C        -0.664160        -0.499022         0.214403
 C        -1.744173        -0.074442        -0.128883
 C        -2.790939         0.888714        -0.134203
 O        -2.244595         2.238477        -0.004103
 C        -3.640853         0.796268         1.184232
 C        -4.423261        -0.508496         1.307401
 C        -3.697079        -1.810559         1.582301
 O        -5.585963        -0.404608         1.211350
 H         1.001706        -1.028392        -0.722066
 H         1.241590        -0.444913         0.970045
 H         0.559804        -2.097932         0.596584
 H        -3.548948         0.825972        -1.032776
 H        -2.836287         2.885040        -0.428556
 H        -2.806778         0.905229         1.892608
 H        -4.289004         1.654834         1.328052
 H        -3.040398        -2.234262         0.912450
 H        -3.109898        -1.628533         2.476539
 H        -4.510694        -2.466226         1.842693
