19
Iteration:  1154
 C         1.564108        -0.043968         0.189513
 C         0.056636         0.018529         0.035886
 C        -1.181358         0.000456        -0.101545
 C        -2.588761         0.409265         0.026492
 O        -2.926760         1.789886         0.105649
 C        -3.232478        -0.362172         1.389875
 C        -4.743846        -0.531508         1.240642
 C        -5.541533        -1.056916         2.432418
 O        -5.324441        -0.563426         0.177592
 H         1.934294         0.600860        -0.604787
 H         1.965758         0.314800         1.158552
 H         2.000659        -1.060334         0.027482
 H        -3.201112         0.183477        -0.916376
 H        -2.247813         2.149253         0.660368
 H        -2.755603        -1.370170         1.542613
 H        -2.791399         0.256989         2.203797
 H        -5.820235        -0.286334         3.248627
 H        -6.433437        -1.621828         2.091019
 H        -4.921341        -1.818986         2.987342
