19
Iteration:   892
 C         1.562041         0.130536         0.225055
 C         0.072348         0.011015         0.094094
 C        -1.131103         0.015233        -0.141345
 C        -2.562441         0.328614        -0.012805
 O        -2.822379         1.608100         0.809215
 C        -3.259131        -0.902899         0.838125
 C        -4.800591        -0.567006         1.005119
 C        -5.203606        -0.060490         2.447894
 O        -5.636827        -0.943781         0.145127
 H         1.811224         1.175687        -0.074148
 H         2.012978         0.103404         1.244501
 H         2.063985        -0.623936        -0.408569
 H        -3.216660         0.340496        -0.922764
 H        -3.778364         1.748636         0.550323
 H        -3.291551        -1.907308         0.280322
 H        -2.796856        -0.893003         1.827116
 H        -5.292380         1.077198         2.432492
 H        -6.146689        -0.548154         2.766481
 H        -4.442230        -0.414274         3.072413
