19
Iteration:  4465charge 0 multiplicity 1
 C         0.282446        -1.556692         0.344280
 C        -0.874798        -0.623623         0.014831
 C        -1.763495         0.219600        -0.141119
 C        -2.841678         1.196030        -0.016278
 O        -2.355215         2.499529         0.171892
 C        -3.654486         0.917658         1.324978
 C        -4.262540        -0.571873         1.260266
 C        -3.486436        -1.696174         1.931847
 O        -5.266866        -0.753394         0.667226
 H         1.222462        -0.941465         0.336494
 H         0.134315        -1.989398         1.327578
 H         0.390933        -2.304628        -0.390604
 H        -3.690991         1.032552        -0.801920
 H        -1.914472         2.817959        -0.691239
 H        -2.824641         1.067541         2.091575
 H        -4.531803         1.629642         1.440048
 H        -2.607055        -1.824095         1.256200
 H        -3.240216        -1.258607         2.890915
 H        -4.068300        -2.591684         2.008149
