19
Iteration:   284charge 0 multiplicity 1
 C         1.464196        -0.417134        -0.001010
 C        -0.021383        -0.259581         0.129104
 C        -1.174087         0.176767         0.017312
 C        -2.624136         0.502273         0.156466
 O        -2.914529         1.863959        -0.145004
 C        -3.169649        -0.162777         1.437168
 C        -4.711136        -0.438298         1.412952
 C        -5.203422        -1.826749         1.864338
 O        -5.524233         0.206569         0.764897
 H         2.022086        -0.022309         0.866509
 H         1.791619        -1.476994        -0.115694
 H         1.816064        -0.046663        -1.004444
 H        -3.064874        -0.005751        -0.694779
 H        -2.727607         2.489049         0.639115
 H        -2.623393        -0.988167         1.832059
 H        -3.176125         0.536208         2.311607
 H        -4.633967        -2.323173         2.663974
 H        -6.283793        -1.633211         2.048380
 H        -5.125294        -2.341307         0.854965
