19
Iteration:  4652
 C         0.347899        -1.401141        -0.706283
 C        -0.576187        -0.358229        -0.244645
 C        -1.461746         0.139739         0.489585
 C        -2.733243         1.017665         0.291737
 O        -2.351797         2.474654         0.139992
 C        -3.812289         0.794254         1.410181
 C        -4.338611        -0.620633         1.350444
 C        -4.594783        -1.167749         2.749016
 O        -4.593607        -1.158479         0.240024
 H         1.410122        -1.352761        -0.433381
 H        -0.023998        -2.304379        -0.282875
 H         0.304477        -1.498709        -1.740553
 H        -3.313668         0.571798        -0.636080
 H        -1.400446         2.472635        -0.238233
 H        -3.603517         1.091442         2.444913
 H        -4.656322         1.332113         0.962884
 H        -3.634406        -1.280335         3.227988
 H        -5.257946        -0.504502         3.311432
 H        -4.927199        -2.248806         2.735969
