19
Iteration:   358
 C         1.261825        -0.672297        -0.029056
 C        -0.040695        -0.097030        -0.051009
 C        -1.204012         0.260698         0.021017
 C        -2.584846         0.667834         0.247450
 O        -2.734523         1.983954         0.210349
 C        -3.213642        -0.034553         1.423226
 C        -4.722408        -0.538631         1.187676
 C        -5.088130        -1.693672         2.097082
 O        -5.533490        -0.149187         0.383553
 H         1.914840        -0.182531         0.760743
 H         1.295214        -1.772913         0.138118
 H         1.846350        -0.425606        -0.942472
 H        -3.306067         0.357899        -0.597391
 H        -3.151660         2.447581         0.905203
 H        -2.737587        -1.037573         1.825340
 H        -3.157712         0.598393         2.310132
 H        -5.178104        -1.402007         3.171050
 H        -6.087192        -1.997981         1.774419
 H        -4.339013        -2.442789         1.898374
