19
Iteration:  4269
 C         0.896285        -0.874424         0.139048
 C        -0.542263        -0.507876         0.104876
 C        -1.719567        -0.180689         0.027511
 C        -2.786944         0.779530         0.004902
 O        -2.226734         2.186148        -0.085602
 C        -3.633876         0.783523         1.225827
 C        -4.557027        -0.480782         1.394006
 C        -3.967318        -1.871542         1.690178
 O        -5.687176        -0.304357         1.114773
 H         1.365996         0.024210        -0.417664
 H         1.316569        -0.969591         1.158675
 H         1.047332        -1.816709        -0.382573
 H        -3.351216         0.728028        -1.047267
 H        -1.284169         2.171576         0.260987
 H        -2.995078         0.979242         2.153113
 H        -4.330083         1.607782         1.161690
 H        -3.111826        -2.028827         0.994439
 H        -3.791974        -1.872763         2.781020
 H        -4.821986        -2.512111         1.366358
