19
Iteration:  3397
 C         0.443727        -1.218456        -0.396330
 C        -0.792412        -0.433626        -0.155020
 C        -1.819956         0.175822        -0.342366
 C        -2.860831         1.062531         0.101077
 O        -2.236350         2.258797         0.573691
 C        -3.589978         0.758552         1.328212
 C        -4.229330        -0.653851         1.331763
 C        -4.680915        -1.048367         2.741671
 O        -4.437253        -1.239094         0.251811
 H         0.165698        -2.235928         0.059147
 H         0.500104        -1.257408        -1.533373
 H         1.362108        -0.975155         0.164983
 H        -3.508380         1.256497        -0.707425
 H        -1.493316         2.399097        -0.034858
 H        -3.016431         1.069066         2.194002
 H        -4.548757         1.446670         1.447575
 H        -3.934541        -1.508869         3.411799
 H        -5.238907        -0.197563         3.219565
 H        -5.406322        -1.856223         2.770269
