19
Iteration:  2168
 C         0.759724        -1.101368         0.231413
 C        -0.514535        -0.399346         0.101460
 C        -1.581885         0.189745         0.000548
 C        -2.691006         1.089040         0.097127
 O        -2.147147         2.397034         0.396728
 C        -3.859745         0.736501         1.123013
 C        -4.603440        -0.652047         1.136883
 C        -3.822704        -1.739589         1.745010
 O        -5.726513        -0.825151         0.634752
 H         1.500953        -0.496925         0.787897
 H         0.606553        -1.999033         0.854417
 H         1.157269        -1.521211        -0.707717
 H        -3.346452         1.070597        -0.822288
 H        -1.411622         2.149788         1.014448
 H        -3.679146         1.010813         2.157343
 H        -4.636788         1.386484         0.727325
 H        -3.373621        -1.275710         2.692654
 H        -4.341298        -2.706830         2.084110
 H        -3.036857        -2.050351         1.002015
