19
Iteration:  1391
 C         0.898906        -0.973595         0.073607
 C        -0.245596        -0.037210        -0.117104
 C        -1.253107         0.619708        -0.033892
 C        -2.726032         0.975887         0.234856
 O        -2.765681         2.382991         0.610595
 C        -3.370627         0.280477         1.449767
 C        -4.514329        -0.745378         1.056239
 C        -5.263879        -1.307431         2.253907
 O        -4.670484        -1.353495        -0.008101
 H         1.531327        -0.859954        -0.826153
 H         1.390014        -0.871285         1.019180
 H         0.606133        -1.979197         0.096262
 H        -3.306622         0.762115        -0.705316
 H        -2.886883         2.738224        -0.264668
 H        -2.764294        -0.477230         1.967719
 H        -3.795724         0.980155         2.137073
 H        -4.648894        -2.206598         2.521316
 H        -5.464173        -0.574656         3.042444
 H        -6.247061        -1.550845         1.869119
