19
Iteration:  1149charge 0 multiplicity 1
 C         1.533591        -0.039051         0.181902
 C         0.051546         0.013766         0.055158
 C        -1.139361         0.049636        -0.135754
 C        -2.555558         0.371798         0.061642
 O        -2.954083         1.762804         0.114491
 C        -3.216001        -0.398329         1.386221
 C        -4.730676        -0.517847         1.208700
 C        -5.520727        -1.058149         2.427776
 O        -5.364959        -0.552159         0.188668
 H         2.020780         0.673892        -0.559378
 H         1.796736         0.334917         1.179075
 H         1.814413        -1.080798         0.076656
 H        -3.108799         0.052565        -0.776090
 H        -2.178895         2.290227         0.554357
 H        -2.727114        -1.364911         1.534822
 H        -2.828797         0.183940         2.217088
 H        -5.641473        -0.227993         3.100568
 H        -6.523579        -1.376715         2.132087
 H        -4.889640        -1.745009         2.952603
