19
Iteration:  4966
 C         0.640728        -0.828531        -0.955278
 C        -0.638884        -0.619754        -0.303977
 C        -1.750976        -0.147169        -0.045441
 C        -2.726968         0.806956         0.286098
 O        -2.342922         2.297602         0.299585
 C        -3.386843         0.670543         1.625591
 C        -4.348193        -0.579788         1.455442
 C        -5.431164        -0.624729         2.573857
 O        -4.209881        -1.427693         0.634262
 H         1.412766        -0.878367        -0.201854
 H         0.831229        -1.747427        -1.469960
 H         0.847941        -0.087293        -1.668798
 H        -3.646805         0.829582        -0.299022
 H        -1.690914         2.252852        -0.363496
 H        -2.515652         0.553609         2.361808
 H        -3.954299         1.529241         1.891144
 H        -4.786833        -0.764527         3.493110
 H        -6.252905         0.055227         2.689325
 H        -5.938947        -1.641122         2.514508
