19
Iteration:  2293charge 0 multiplicity 1
 C         0.677699        -1.139788         0.033890
 C        -0.420788        -0.285674         0.228096
 C        -1.589762         0.086300         0.229607
 C        -2.751969         0.904530         0.261318
 O        -2.429637         2.340234        -0.011915
 C        -3.778468         0.784387         1.479112
 C        -4.525722        -0.528168         1.247058
 C        -3.892574        -1.953005         1.762060
 O        -5.456093        -0.524814         0.429396
 H         1.429444        -0.814491         0.727623
 H         0.463292        -2.148626         0.386266
 H         1.082631        -1.224166        -0.970311
 H        -3.339648         0.699773        -0.613648
 H        -1.689572         2.771527         0.453606
 H        -3.200163         0.784367         2.418391
 H        -4.485952         1.620085         1.458903
 H        -4.077764        -2.924126         1.241813
 H        -2.776101        -1.865686         1.927310
 H        -4.156970        -2.165890         2.905858
