19
Iteration:   975
 C         1.467404         0.289231         0.426037
 C         0.045711         0.070663         0.170689
 C        -1.141103        -0.003244        -0.128298
 C        -2.579241         0.109647        -0.180290
 O        -3.002883         1.397834         0.495419
 C        -3.200710        -0.927500         0.720160
 C        -4.736842        -0.572003         1.049311
 C        -5.084575        -0.246064         2.498303
 O        -5.650397        -0.508411         0.282466
 H         1.971815         1.197199         0.014845
 H         1.526615         0.261069         1.514406
 H         2.010763        -0.592671         0.098022
 H        -3.134259         0.256926        -1.141859
 H        -2.269305         1.637965         1.008937
 H        -3.040201        -1.988774         0.467723
 H        -2.789877        -0.886660         1.723027
 H        -4.691892         0.714766         2.839397
 H        -6.182188        -0.368329         2.706895
 H        -4.507117        -0.954271         3.148808
