19
Iteration:  4036charge 0 multiplicity 1
 C         0.743993        -1.181596         0.227100
 C        -0.538924        -0.634930         0.043160
 C        -1.492286         0.098795         0.191169
 C        -2.731711         0.877946         0.126384
 O        -2.351816         2.205958        -0.340133
 C        -3.741942         0.872764         1.467037
 C        -4.575704        -0.424449         1.388637
 C        -3.693959        -1.730492         1.464062
 O        -5.714643        -0.450708         1.110656
 H         1.307269        -1.098903        -0.685749
 H         1.435948        -0.697804         0.974452
 H         0.876724        -2.297102         0.524169
 H        -3.211141         0.420604        -0.676590
 H        -3.078697         2.700103        -0.059807
 H        -3.189291         0.990202         2.414198
 H        -4.568091         1.621741         1.350394
 H        -2.911636        -1.753458         0.610202
 H        -3.187359        -1.705876         2.452950
 H        -4.347307        -2.604290         1.402716
