19
Iteration:  3638
 C         0.423187        -1.215841        -0.116121
 C        -0.947538        -0.800106        -0.072808
 C        -1.759671         0.120343        -0.001002
 C        -2.871366         1.112068         0.061635
 O        -2.187780         2.447861         0.011846
 C        -3.667797         0.884359         1.426564
 C        -4.305722        -0.499744         1.409790
 C        -4.062991        -1.488542         2.465513
 O        -4.943023        -0.947485         0.394979
 H         0.604181        -2.147296        -0.740249
 H         1.039801        -0.474015        -0.650407
 H         0.880802        -1.330496         0.857436
 H        -3.655807         0.947840        -0.809612
 H        -1.535067         2.345606         0.666968
 H        -3.023035         1.065961         2.272621
 H        -4.425980         1.666968         1.464232
 H        -3.015364        -1.742154         2.159831
 H        -4.113853        -1.115479         3.567348
 H        -4.642340        -2.390338         2.121946
