19
Iteration:  1853charge 0 multiplicity 1
 C         0.552824        -1.218196        -0.024174
 C        -0.590451        -0.320025         0.124674
 C        -1.666846         0.226400         0.184085
 C        -2.801988         1.176694         0.203117
 O        -2.242087         2.428188         0.675416
 C        -4.147832         0.764854         1.145698
 C        -4.364641        -0.613560         1.021023
 C        -4.081882        -1.690010         2.217356
 O        -4.871272        -1.029689        -0.002415
 H         1.391267        -0.744109        -0.581492
 H         0.979218        -1.577866         0.957811
 H         0.356328        -2.081405        -0.767383
 H        -3.111579         1.245587        -0.825370
 H        -1.771647         2.180277         1.512462
 H        -3.930478         1.097664         2.187958
 H        -5.102182         1.165311         0.631670
 H        -3.854243        -0.981365         3.009563
 H        -4.988286        -2.212568         2.340934
 H        -3.217293        -2.193309         1.815030
