19
Iteration:  1871charge 0 multiplicity 1
 C         0.553696        -1.176393         0.013446
 C        -0.644688        -0.338981         0.196729
 C        -1.749152         0.127397         0.128476
 C        -2.843834         1.195155         0.242515
 O        -2.231341         2.404830         0.666119
 C        -4.042321         0.938745         1.172015
 C        -4.469892        -0.671334         1.050088
 C        -4.009491        -1.613988         2.100503
 O        -4.872245        -1.133118        -0.007062
 H         1.450875        -0.742176        -0.501385
 H         0.838445        -1.538272         0.982266
 H         0.248322        -1.910888        -0.678334
 H        -3.286624         1.415845        -0.789786
 H        -1.486031         2.116663         1.244001
 H        -3.720336         1.094371         2.209989
 H        -4.705770         1.711132         0.824364
 H        -3.923536        -1.275706         3.140356
 H        -4.580249        -2.567284         1.889597
 H        -2.989524        -1.994987         1.800205
