19
Iteration:  2587
 C         0.250255        -1.590526        -0.158627
 C        -0.777733        -0.551457         0.151470
 C        -1.674424         0.304911         0.000089
 C        -2.801859         1.285396         0.072011
 O        -2.427667         2.540764         0.470048
 C        -3.756909         0.784986         1.197812
 C        -4.234355        -0.563961         1.146426
 C        -3.819783        -1.444402         2.389094
 O        -4.946597        -1.057324         0.229606
 H         0.985162        -1.676286         0.688889
 H        -0.150512        -2.603249        -0.516965
 H         0.857226        -1.166899        -1.050944
 H        -3.424346         1.361366        -0.903571
 H        -1.745585         2.468144         1.199280
 H        -3.082700         0.825833         2.120442
 H        -4.508100         1.527163         1.010822
 H        -3.546000        -2.483912         2.164510
 H        -3.154551        -0.967298         3.054531
 H        -4.746145        -1.528905         2.966978
