19
Iteration:  1886charge 0 multiplicity 1
 C         0.511456        -1.124206         0.071848
 C        -0.782070        -0.421597         0.168960
 C        -1.809477         0.164680         0.170718
 C        -2.806118         1.153163         0.240739
 O        -2.199908         2.455297         0.645338
 C        -3.961205         0.782167         1.202299
 C        -4.428596        -0.578901         0.958127
 C        -3.922444        -1.599900         2.065320
 O        -4.934396        -1.123918        -0.018795
 H         1.260481        -0.399347        -0.279990
 H         0.900232        -1.652136         0.999873
 H         0.371145        -2.082946        -0.551852
 H        -3.236344         1.272588        -0.752667
 H        -1.240271         2.231941         0.957942
 H        -3.619115         0.938650         2.255474
 H        -4.903583         1.452777         1.224758
 H        -4.187364        -1.315447         3.104759
 H        -4.272414        -2.604634         2.005186
 H        -2.825734        -1.464646         1.980879
