19
Iteration:  2842
 C         0.698795        -1.221629        -0.400154
 C        -0.683935        -0.596768        -0.232325
 C        -1.670285         0.169510        -0.013851
 C        -2.809037         1.082949         0.130974
 O        -2.169444         2.436700         0.204985
 C        -3.669641         0.764398         1.420118
 C        -4.457755        -0.561630         1.459048
 C        -4.584167        -1.455231         2.614292
 O        -4.940912        -0.969120         0.343469
 H         1.159323        -1.662588         0.558878
 H         0.664294        -1.958425        -1.261172
 H         1.413880        -0.416512        -0.725180
 H        -3.455160         1.130335        -0.831802
 H        -1.284732         2.316222         0.492519
 H        -2.823320         0.753744         2.191625
 H        -4.203916         1.661862         1.787555
 H        -5.253097        -1.210862         3.394969
 H        -4.990278        -2.409068         2.284000
 H        -3.627364        -1.680446         3.099806
