19
Iteration:  4750
 C         0.500568        -1.086218        -0.427373
 C        -0.711338        -0.340502        -0.611329
 C        -1.783346         0.159783        -0.351816
 C        -2.811000         1.051545         0.193415
 O        -2.224244         2.306450         0.333549
 C        -3.344146         0.487819         1.641648
 C        -4.335899        -0.636371         1.400090
 C        -5.126239        -0.855034         2.759186
 O        -4.394240        -1.378301         0.443980
 H         1.151987        -0.634761         0.418623
 H         0.238495        -2.096571        -0.076422
 H         1.079873        -1.210528        -1.331341
 H        -3.603314         1.055766        -0.493096
 H        -1.360992         2.227773        -0.169899
 H        -2.524625        -0.093016         2.098817
 H        -3.772902         1.184294         2.311054
 H        -4.551145        -1.076492         3.653095
 H        -5.680303         0.127115         2.813877
 H        -5.997137        -1.539529         2.590272
