19
Iteration:  3252
 C         0.581067        -1.303373        -0.783459
 C        -0.678059        -0.583583        -0.414333
 C        -1.428213         0.307996         0.069430
 C        -2.647378         1.014861         0.353873
 O        -2.522279         2.487771         0.213439
 C        -3.407177         0.594726         1.702723
 C        -4.297073        -0.660708         1.536363
 C        -5.343342        -1.058303         2.567078
 O        -4.296457        -1.192325         0.410228
 H         0.759376        -2.111464        -0.081857
 H         0.660726        -1.637742        -1.841213
 H         1.287753        -0.462509        -0.565520
 H        -3.371827         0.758838        -0.496604
 H        -2.022984         2.531845        -0.675315
 H        -2.731884         0.685433         2.585470
 H        -4.151872         1.456717         1.912098
 H        -5.064526        -1.712597         3.406964
 H        -5.779783        -0.114432         2.899505
 H        -6.088238        -1.686807         2.015408
