19
Iteration:   271
 C         1.477379        -0.406214         0.002901
 C         0.008361        -0.151032         0.047275
 C        -1.195105         0.111228         0.108297
 C        -2.645374         0.394138         0.114645
 O        -2.840851         1.840922        -0.164928
 C        -3.194724        -0.110950         1.476260
 C        -4.752910        -0.465048         1.368821
 C        -5.222167        -1.856386         1.858201
 O        -5.497483         0.343174         0.814565
 H         2.013651         0.054202         0.901028
 H         1.610803        -1.512130         0.053581
 H         1.944243         0.143550        -0.838731
 H        -3.216952        -0.133872        -0.627938
 H        -3.523218         2.082288         0.506707
 H        -2.644322        -1.125709         1.470352
 H        -2.765837         0.520524         2.223082
 H        -4.570963        -2.473363         2.557246
 H        -6.251965        -1.978477         2.220771
 H        -5.182889        -2.491821         0.939288
