19
Iteration:  2034
 C         0.403241        -1.531734         0.298883
 C        -0.657386        -0.468790         0.344313
 C        -1.422579         0.455794         0.202419
 C        -2.699687         1.203711         0.174439
 O        -2.789928         2.606028         0.215851
 C        -3.668895         0.699367         1.376704
 C        -4.253006        -0.666456         1.046459
 C        -3.620601        -1.944904         1.652981
 O        -5.295466        -0.640802         0.331314
 H         1.419379        -1.147804         0.515321
 H         0.242024        -2.213482         1.132690
 H         0.249260        -2.123624        -0.576036
 H        -3.154880         0.750408        -0.691460
 H        -1.997606         3.016348        -0.054484
 H        -3.179706         0.877188         2.328234
 H        -4.479968         1.422347         1.321070
 H        -3.718323        -2.759191         0.921049
 H        -2.796832        -1.800372         2.368193
 H        -4.486437        -2.218038         2.339844
