19
Iteration:  1051
 C         1.509226         0.080688         0.289524
 C         0.060917         0.097570         0.225361
 C        -1.151530         0.313453         0.172154
 C        -2.558963         0.241350        -0.096979
 O        -3.043556         1.416358         0.215768
 C        -3.206225        -0.915283         0.846624
 C        -4.768671        -0.641720         1.100740
 C        -5.172199        -0.530916         2.620301
 O        -5.468554        -0.359903         0.156208
 H         2.047668         0.882493        -0.324961
 H         1.763403         0.267702         1.357004
 H         1.823471        -0.926350        -0.012915
 H        -2.997382         0.102343        -1.092411
 H        -3.993161         1.119575         0.521019
 H        -2.972697        -1.910865         0.423705
 H        -2.632738        -0.896732         1.800266
 H        -4.331730         0.011732         3.008176
 H        -6.014654         0.206469         2.643071
 H        -5.346462        -1.329799         3.329164
