19
Iteration:  1768
 C         0.427430        -1.348903        -0.143289
 C        -0.530129        -0.208480         0.269280
 C        -1.564997         0.406378         0.254607
 C        -2.832307         1.183332         0.254184
 O        -2.463467         2.535027         0.560977
 C        -3.835983         0.658127         1.222014
 C        -4.301674        -0.742148         1.022010
 C        -4.354357        -1.706535         2.230938
 O        -4.647044        -1.026926        -0.111169
 H         1.056673        -0.932345        -0.860154
 H         0.936635        -1.634829         0.778684
 H        -0.186152        -2.179932        -0.584483
 H        -3.177394         1.257490        -0.781147
 H        -1.889122         2.399001         1.329067
 H        -3.623937         0.686814         2.279820
 H        -4.644010         1.391135         1.136888
 H        -3.424124        -2.383260         2.155948
 H        -4.424432        -1.029065         3.137948
 H        -5.214694        -2.410984         2.395803
