19
Iteration:  4515
 C         0.132650        -1.454857         0.252250
 C        -0.890181        -0.491581        -0.022121
 C        -1.744265         0.346601        -0.311188
 C        -2.925241         1.206920        -0.081292
 O        -2.301931         2.535541         0.165215
 C        -3.475429         0.737628         1.331040
 C        -4.112587        -0.627939         1.255641
 C        -3.750185        -1.701342         2.314378
 O        -5.136878        -0.827785         0.520452
 H         1.057928        -0.930531         0.492857
 H        -0.164943        -2.043351         1.168641
 H         0.321971        -2.147758        -0.661787
 H        -3.718788         1.186859        -0.754596
 H        -1.392436         2.281547        -0.028088
 H        -2.621654         0.727863         1.970738
 H        -4.236072         1.400303         1.710679
 H        -2.778827        -2.208810         2.171576
 H        -3.864485        -1.233953         3.315515
 H        -4.684407        -2.340244         2.280272
