19
Iteration:  2149charge 0 multiplicity 1
 C         0.715512        -1.116548         0.319961
 C        -0.615538        -0.524080         0.137112
 C        -1.588288         0.131145        -0.100513
 C        -2.750071         1.113425         0.082603
 O        -2.247272         2.424329         0.450649
 C        -3.899015         0.843208         1.123760
 C        -4.484447        -0.586577         1.076498
 C        -3.727135        -1.807067         1.721808
 O        -5.632039        -0.821356         0.648269
 H         1.326115        -0.375429         0.736064
 H         0.877603        -1.961905         0.985898
 H         1.045032        -1.489911        -0.650780
 H        -3.058921         1.243643        -0.922854
 H        -1.365419         2.289581         0.740523
 H        -3.311603         0.961495         2.029907
 H        -4.621249         1.669352         1.120282
 H        -2.951819        -1.557762         2.459735
 H        -4.549399        -2.399120         2.209837
 H        -3.439922        -2.478471         0.895588
