19
Iteration:  2056charge 0 multiplicity 1
 C         0.362289        -1.465672         0.345676
 C        -0.568210        -0.405147         0.248092
 C        -1.521855         0.385335         0.278603
 C        -2.857158         1.099658         0.150808
 O        -2.663155         2.541514         0.217168
 C        -3.649070         0.708015         1.356685
 C        -4.263323        -0.630940         1.078063
 C        -3.641430        -1.898667         1.611010
 O        -5.300166        -0.625266         0.368148
 H         1.335321        -0.982585         0.604289
 H         0.225322        -2.144000         1.182289
 H         0.343611        -2.043806        -0.562592
 H        -3.334628         0.766341        -0.784455
 H        -1.677962         2.700974        -0.000547
 H        -3.045445         0.856563         2.246888
 H        -4.535125         1.314155         1.501080
 H        -3.179574        -2.290276         0.680803
 H        -3.014523        -1.489040         2.416969
 H        -4.338109        -2.650387         2.038958
