19
Iteration:   555charge 0 multiplicity 1
 C         1.199038        -0.571802        -0.561059
 C        -0.151677        -0.184032        -0.144254
 C        -1.206109         0.374068         0.168955
 C        -2.612481         0.680464         0.522863
 O        -2.688353         2.114256         0.831843
 C        -3.377341        -0.176711         1.680320
 C        -4.620086        -0.684311         1.079962
 C        -5.767716        -0.771505         2.075637
 O        -4.761624        -1.119551        -0.070384
 H         1.926840         0.140464        -0.174848
 H         1.596642        -1.528422        -0.233119
 H         1.337541        -0.501045        -1.622308
 H        -3.277903         0.536736        -0.362784
 H        -1.854947         2.426029         0.260457
 H        -2.720252        -1.000482         2.116595
 H        -3.488691         0.530463         2.436580
 H        -6.101274         0.273766         2.222806
 H        -6.480943        -1.503919         1.714922
 H        -5.568593        -1.117427         3.106867
