19
Iteration:  2354charge 0 multiplicity 1
 C         0.608146        -1.189025         0.282764
 C        -0.713617        -0.595151         0.025704
 C        -1.569114         0.291138        -0.057224
 C        -2.752189         1.117536         0.138486
 O        -2.529785         2.589981         0.043347
 C        -3.505690         0.497272         1.422030
 C        -4.380053        -0.690262         1.271917
 C        -3.985034        -1.923916         1.887908
 O        -5.330010        -0.554569         0.498733
 H         0.986074        -0.527098         1.147135
 H         0.661546        -2.247198         0.723213
 H         1.306892        -1.060967        -0.606388
 H        -3.562227         0.987828        -0.685542
 H        -1.733251         2.804322         0.453004
 H        -2.799950         0.574358         2.251536
 H        -4.299379         1.297687         1.709212
 H        -2.995156        -2.001007         1.362064
 H        -3.760716        -1.676522         2.995629
 H        -4.776056        -2.609038         1.820174
