19
Iteration:  3336
 C         0.460974        -1.372481        -0.726537
 C        -0.655059        -0.501619        -0.307327
 C        -1.312953         0.408148         0.154981
 C        -2.623812         1.124918         0.249255
 O        -2.378939         2.615334         0.330854
 C        -3.691434         0.704278         1.413888
 C        -4.325574        -0.708522         1.373322
 C        -5.069950        -1.144574         2.652049
 O        -4.494448        -1.445845         0.480601
 H         0.344640        -2.352553        -0.259557
 H         0.359597        -1.586945        -1.780188
 H         1.474729        -1.017937        -0.589042
 H        -3.032566         0.947606        -0.825220
 H        -1.637905         2.711089        -0.238650
 H        -3.108998         0.949541         2.330714
 H        -4.486134         1.376404         1.363048
 H        -4.278728        -1.706285         3.196794
 H        -5.312392        -0.339026         3.366399
 H        -5.986234        -1.640956         2.259714
