19
Iteration:  3290charge 0 multiplicity 1
 C         0.356131        -1.322785        -0.865691
 C        -0.403571        -0.325629        -0.043161
 C        -1.515045         0.103650         0.183186
 C        -2.800140         0.958230         0.308008
 O        -2.608324         2.347726         0.328276
 C        -3.482513         0.679029         1.570823
 C        -4.357150        -0.524332         1.351362
 C        -5.063931        -0.904191         2.513752
 O        -4.204833        -1.280653         0.351786
 H         0.440748        -2.331945        -0.364623
 H        -0.000601        -1.505608        -1.887711
 H         1.414265        -1.115430        -1.013865
 H        -3.454397         0.544963        -0.559923
 H        -2.001171         2.706849        -0.396051
 H        -2.800534         0.270140         2.320567
 H        -3.980833         1.599023         1.873925
 H        -4.415800        -1.552085         3.116842
 H        -5.308161        -0.058556         3.180736
 H        -5.936651        -1.423722         2.153502
