19
Iteration:  1877charge 0 multiplicity 1
 C         0.545354        -1.123703         0.043098
 C        -0.671148        -0.396340         0.192441
 C        -1.799139         0.143858         0.134779
 C        -2.860012         1.184740         0.249625
 O        -2.216794         2.435215         0.663527
 C        -3.991676         0.898748         1.178367
 C        -4.464363        -0.604497         0.998164
 C        -3.974834        -1.659309         2.107996
 O        -4.885412        -1.145505         0.003926
 H         1.424175        -0.774974        -0.480339
 H         0.821135        -1.608317         1.017844
 H         0.210205        -1.942774        -0.705384
 H        -3.287532         1.247564        -0.726106
 H        -1.381937         2.039853         1.146671
 H        -3.716381         0.897681         2.242179
 H        -4.638257         1.734558         0.802988
 H        -4.035248        -1.176127         3.092679
 H        -4.514290        -2.567978         1.875784
 H        -2.937429        -1.622654         1.713384
