19
Iteration:  1796
 C         0.547821        -1.333914        -0.153445
 C        -0.655000        -0.451469         0.188604
 C        -1.508106         0.385532         0.296543
 C        -2.714446         1.291528         0.308706
 O        -2.464456         2.629035         0.626458
 C        -3.851326         0.736535         1.191475
 C        -4.336361        -0.750854         0.920377
 C        -4.318541        -1.635129         2.220059
 O        -4.825126        -1.202112        -0.059648
 H         1.135363        -0.577046        -0.787093
 H         1.126535        -1.462342         0.781515
 H         0.327507        -2.183210        -0.802313
 H        -3.077261         1.314117        -0.743342
 H        -1.912404         2.593463         1.476853
 H        -3.660170         0.734355         2.304122
 H        -4.693509         1.461675         0.975406
 H        -3.282027        -1.634097         2.431184
 H        -4.943493        -1.128485         2.952405
 H        -4.628249        -2.671290         2.179995
