19
Iteration:   496
 C         1.152123        -0.680053        -0.382539
 C        -0.113088        -0.129081        -0.050965
 C        -1.206343         0.389858         0.073493
 C        -2.610957         0.796739         0.385767
 O        -2.574131         2.141573         0.741111
 C        -3.302861        -0.081638         1.512121
 C        -4.702330        -0.662999         1.088349
 C        -5.597154        -1.084564         2.240651
 O        -4.946258        -0.968861        -0.061819
 H         1.893367         0.001300         0.116987
 H         1.350192        -1.729143        -0.115432
 H         1.317852        -0.556166        -1.475359
 H        -3.226495         0.506035        -0.473070
 H        -3.095496         2.567782         0.084634
 H        -2.830678        -0.977189         1.874418
 H        -3.405310         0.583085         2.431138
 H        -5.865940        -0.275718         3.010933
 H        -6.583992        -1.522081         1.994043
 H        -4.923516        -1.762302         2.791432
