19
Iteration:  1417charge 0 multiplicity 1
 C         0.893443        -0.936776         0.054023
 C        -0.300172        -0.140943        -0.070727
 C        -1.396722         0.431712         0.009928
 C        -2.684364         1.056686         0.146003
 O        -2.817796         2.550787         0.592691
 C        -3.398270         0.207584         1.402854
 C        -4.372308        -0.887009         1.090183
 C        -5.258117        -1.354831         2.331162
 O        -4.623277        -1.240292        -0.055726
 H         1.502827        -0.784140        -0.867533
 H         1.455202        -0.739791         1.062740
 H         0.580359        -2.091457         0.032307
 H        -3.272891         0.985723        -0.867448
 H        -1.948154         2.959773         0.326831
 H        -2.719345        -0.239077         2.180090
 H        -4.129790         0.922755         1.881818
 H        -4.664060        -1.961582         2.984404
 H        -5.682547        -0.386462         2.690486
 H        -6.131225        -1.969569         1.924774
