19
Iteration:  4330
 C         0.877120        -1.314552        -0.028320
 C        -0.366463        -0.515746         0.024250
 C        -1.370973         0.163441         0.229951
 C        -2.604347         0.958347         0.085200
 O        -2.368061         2.382223        -0.097544
 C        -3.852531         0.859923         1.163324
 C        -4.686397        -0.549536         1.337471
 C        -3.933257        -1.721321         1.816266
 O        -5.826295        -0.599156         1.082724
 H         1.734121        -0.775641        -0.320069
 H         1.113575        -1.706224         0.956800
 H         0.827379        -2.167444        -0.749621
 H        -3.074917         0.586494        -0.841022
 H        -1.424547         2.597558         0.086624
 H        -3.423337         1.073833         2.166386
 H        -4.535757         1.676924         0.934997
 H        -3.032277        -1.987475         1.290602
 H        -3.468025        -1.656902         2.811474
 H        -4.675991        -2.537472         1.892896
