19
Iteration:   568
 C         1.214063        -0.542395        -0.585400
 C        -0.108161        -0.164025        -0.175567
 C        -1.179223         0.327527         0.160777
 C        -2.555796         0.693422         0.517282
 O        -2.614782         2.101799         0.875224
 C        -3.355209        -0.112964         1.626138
 C        -4.723669        -0.793320         1.141091
 C        -5.908898        -0.756854         2.052530
 O        -4.681337        -1.110010        -0.007026
 H         1.867383         0.211448        -0.190535
 H         1.475183        -1.538923        -0.211016
 H         1.272106        -0.532697        -1.688627
 H        -3.095478         0.453239        -0.437198
 H        -2.814204         2.583927         0.114118
 H        -2.730095        -1.034564         1.815785
 H        -3.509295         0.361080         2.596797
 H        -6.328213         0.206110         1.985892
 H        -6.759984        -1.316511         1.738654
 H        -5.491737        -0.914550         3.066694
