19
Iteration:   705
 C         1.308836        -0.363254        -0.526899
 C        -0.037617        -0.000933        -0.137334
 C        -1.191819         0.264456         0.116835
 C        -2.572147         0.623562         0.483660
 O        -2.693084         1.959834         0.991521
 C        -3.259609        -0.329334         1.545541
 C        -4.761456        -0.810408         1.112005
 C        -5.884136        -0.265684         1.929638
 O        -4.858599        -1.391196         0.043111
 H         2.067750         0.474734        -0.394427
 H         1.718836        -1.173688         0.140810
 H         1.370487        -0.816690        -1.520654
 H        -3.201282         0.338950        -0.394680
 H        -2.304301         2.474315         0.321355
 H        -2.570367        -1.207126         1.419163
 H        -3.297564         0.073279         2.591174
 H        -5.708193         0.688060         2.446993
 H        -6.758810        -0.322140         1.302377
 H        -5.983211        -0.899272         2.779536
