19
Iteration:  2607charge 0 multiplicity 1
 C         0.165115        -1.523746        -0.054010
 C        -0.740972        -0.439136        -0.057733
 C        -1.700323         0.318443        -0.045009
 C        -2.808596         1.234505         0.080106
 O        -2.290560         2.609853         0.409839
 C        -3.780580         0.844841         1.248653
 C        -4.175915        -0.712106         1.212345
 C        -3.935849        -1.566641         2.450766
 O        -4.902471        -1.041118         0.232484
 H         0.693683        -1.701221         0.892252
 H        -0.537544        -2.360165        -0.328286
 H         0.877668        -1.464298        -0.923133
 H        -3.292598         1.211819        -0.959805
 H        -1.614533         2.356258         1.151313
 H        -3.160752         1.024095         2.174588
 H        -4.774029         1.420316         1.273866
 H        -3.343333        -2.398072         2.087629
 H        -3.377553        -0.921657         3.080384
 H        -4.929209        -1.945363         2.756205
