19
Iteration:  3125
 C         0.751553        -1.044478        -0.608619
 C        -0.576704        -0.424147        -0.554993
 C        -1.525750         0.219479        -0.220085
 C        -2.659319         1.083884         0.138110
 O        -2.133431         2.359824         0.392386
 C        -3.581792         0.560475         1.436687
 C        -4.589639        -0.577142         1.372806
 C        -5.233427        -1.077847         2.838261
 O        -4.665688        -1.404362         0.528238
 H         0.697873        -1.615027         0.339743
 H         1.076768        -1.623278        -1.471230
 H         1.475047        -0.282461        -0.417288
 H        -3.323938         1.117170        -0.670159
 H        -1.235669         2.280768         0.567242
 H        -2.882846         0.221283         2.219472
 H        -4.093869         1.457597         1.805513
 H        -4.734901        -0.617853         3.734918
 H        -6.286575        -0.726455         3.035212
 H        -5.184048        -2.215088         2.803075
