19
Iteration:   866charge 0 multiplicity 1
 C         1.577730        -0.027169         0.061076
 C         0.093059         0.096085         0.062862
 C        -1.121921         0.232408         0.096109
 C        -2.582325         0.292379         0.067952
 O        -2.906078         1.548757         0.832348
 C        -3.273467        -0.754364         0.827476
 C        -4.834734        -0.710295         1.083606
 C        -5.273550        -0.031286         2.348522
 O        -5.560020        -0.998509         0.140448
 H         1.959942         0.977627        -0.144311
 H         2.026423        -0.170349         1.024478
 H         1.923845        -0.763356        -0.635799
 H        -3.024330         0.236098        -0.940706
 H        -2.668940         2.187006         0.146604
 H        -3.195055        -1.676059         0.264806
 H        -2.734805        -0.824422         1.782076
 H        -5.297408         1.069863         2.127632
 H        -6.253390        -0.518493         2.535638
 H        -4.598500        -0.349563         3.224939
