19
Iteration:  4927charge 0 multiplicity 1
 C         0.593987        -0.981820        -1.151656
 C        -0.486277        -0.440452        -0.365162
 C        -1.379706         0.066995         0.245327
 C        -2.697771         0.794441         0.354863
 O        -2.334831         2.232573         0.255565
 C        -3.529839         0.625889         1.636407
 C        -4.378051        -0.644069         1.533816
 C        -5.599849        -0.683845         2.594323
 O        -4.257835        -1.389984         0.604548
 H         1.564039        -0.903286        -0.556879
 H         0.252387        -1.981544        -1.475507
 H         0.770224        -0.301659        -2.048595
 H        -3.156559         0.359810        -0.511947
 H        -1.909674         2.421836        -0.639567
 H        -2.900099         0.698563         2.505971
 H        -4.242279         1.496757         1.671870
 H        -5.098298        -0.566849         3.562461
 H        -6.218775         0.232637         2.618187
 H        -6.086328        -1.631180         2.469433
