19
Iteration:  3605charge 0 multiplicity 1
 C         0.387960        -1.490236        -0.307839
 C        -0.602622        -0.475213         0.058980
 C        -1.636405         0.122575         0.180221
 C        -2.793318         1.042772         0.197242
 O        -2.485465         2.486558         0.043702
 C        -3.714275         0.862220         1.419409
 C        -4.289333        -0.592737         1.231567
 C        -4.065939        -1.403747         2.558412
 O        -4.934177        -0.857407         0.282285
 H        -0.135489        -2.424045        -0.717994
 H         1.113927        -1.073280        -1.035906
 H         0.985247        -1.928966         0.475855
 H        -3.499167         0.716488        -0.693899
 H        -1.500791         2.409473        -0.081387
 H        -3.237280         1.055347         2.368446
 H        -4.606111         1.475586         1.263257
 H        -3.151133        -2.038599         2.428008
 H        -3.983735        -0.785829         3.542374
 H        -4.982742        -2.064759         2.685269
