19
Iteration:  2371
 C         0.566028        -1.229683         0.343477
 C        -0.650645        -0.453503         0.000945
 C        -1.615478         0.266343        -0.138736
 C        -2.821971         1.134075         0.075425
 O        -2.485908         2.586782         0.071621
 C        -3.488627         0.640852         1.463323
 C        -4.326936        -0.638505         1.165763
 C        -3.941094        -2.008898         1.999408
 O        -5.388739        -0.602179         0.489784
 H         1.147204        -0.843435         1.162745
 H         0.280555        -2.244388         0.461520
 H         1.263057        -1.268343        -0.473363
 H        -3.528067         1.084657        -0.712624
 H        -1.723271         2.668599         0.579003
 H        -2.691435         0.241559         2.105783
 H        -4.172972         1.342419         1.882564
 H        -2.894106        -2.338483         2.041147
 H        -4.190485        -1.828842         3.026878
 H        -4.451286        -2.884895         1.528184
