19
Iteration:  4431charge 0 multiplicity 1
 C         0.356263        -1.610061         0.230000
 C        -0.648404        -0.575996        -0.163961
 C        -1.530991         0.157954         0.250868
 C        -2.802915         1.094060         0.146743
 O        -2.475525         2.443729         0.073362
 C        -3.836918         1.003770         1.279638
 C        -4.345948        -0.501001         1.327933
 C        -3.454244        -1.634741         1.773890
 O        -5.416641        -0.686456         0.731292
 H         1.397991        -1.207896         0.212295
 H         0.128054        -1.951278         1.226425
 H         0.331758        -2.484575        -0.373919
 H        -3.326658         0.778969        -0.893237
 H        -1.905979         2.524770        -0.738889
 H        -3.369178         1.372508         2.265306
 H        -4.749885         1.590561         1.122203
 H        -2.504257        -1.718479         1.195367
 H        -3.000440        -1.396145         2.726834
 H        -3.869630        -2.632005         1.766786
