19
Iteration:   558charge 0 multiplicity 1
 C         1.199017        -0.577739        -0.563321
 C        -0.141607        -0.174012        -0.151650
 C        -1.184250         0.376420         0.153338
 C        -2.600017         0.669100         0.529425
 O        -2.667727         2.113803         0.839065
 C        -3.398821        -0.185285         1.682315
 C        -4.648044        -0.696631         1.107500
 C        -5.803875        -0.768732         2.070332
 O        -4.740008        -1.119907        -0.063183
 H         1.841759         0.190345        -0.139383
 H         1.651112        -1.529553        -0.246015
 H         1.301381        -0.486745        -1.676751
 H        -3.191871         0.616540        -0.403493
 H        -2.101994         2.460753         0.178125
 H        -2.669270        -0.969489         1.983151
 H        -3.523516         0.558594         2.505756
 H        -6.064868         0.243905         2.143370
 H        -6.507690        -1.484411         1.708439
 H        -5.545934        -1.056301         3.117316
