19
Iteration:  2828charge 0 multiplicity 1
 C         0.603742        -1.202447        -0.450493
 C        -0.712676        -0.720353        -0.050579
 C        -1.601209         0.160953        -0.005191
 C        -2.729247         1.098747         0.125916
 O        -2.318778         2.491785         0.250774
 C        -3.546643         0.721615         1.382624
 C        -4.438053        -0.580661         1.285764
 C        -4.494808        -1.461620         2.680857
 O        -4.979810        -0.913052         0.308916
 H         1.005039        -1.688427         0.436767
 H         0.584416        -1.992825        -1.214499
 H         1.274371        -0.430246        -0.815566
 H        -3.364006         1.008371        -0.789277
 H        -1.342627         2.429250         0.578944
 H        -2.879700         0.591061         2.284626
 H        -4.294023         1.490611         1.522184
 H        -5.126619        -0.878730         3.405402
 H        -4.815873        -2.455017         2.394240
 H        -3.517465        -1.343688         3.119707
