19
Iteration:  3558charge 0 multiplicity 1
 C         0.259861        -1.633629        -0.373803
 C        -0.555498        -0.440577        -0.060264
 C        -1.253580         0.451246         0.369806
 C        -2.572310         1.143493         0.158749
 O        -2.655141         2.549512         0.061194
 C        -3.592903         0.759513         1.283448
 C        -4.309170        -0.562547         1.392520
 C        -4.328963        -1.492796         2.561962
 O        -4.953181        -1.004484         0.349682
 H        -0.348842        -2.479971        -0.494322
 H         0.936596        -1.584014        -1.210378
 H         0.859602        -1.967071         0.483031
 H        -3.083082         0.644721        -0.740556
 H        -2.398153         2.755649        -0.793121
 H        -3.086138         0.952679         2.240546
 H        -4.302367         1.528534         1.062310
 H        -3.308271        -1.927552         2.501630
 H        -4.479650        -0.902291         3.431613
 H        -5.098116        -2.239427         2.472211
