19
Iteration:  2667
 C         0.173589        -1.497968        -0.013934
 C        -0.955977        -0.580498        -0.101284
 C        -1.800618         0.297934        -0.080102
 C        -2.864825         1.274692         0.182072
 O        -2.385234         2.597574         0.321964
 C        -3.552852         0.723913         1.354160
 C        -4.089549        -0.633002         1.227445
 C        -4.097949        -1.572532         2.401088
 O        -4.693450        -0.897946         0.168722
 H         0.512146        -1.533352         1.076959
 H        -0.178540        -2.534297        -0.152896
 H         1.048058        -1.321842        -0.648736
 H        -3.591782         1.253866        -0.632399
 H        -1.383580         2.497940         0.383675
 H        -2.850415         0.887239         2.185893
 H        -4.427402         1.317478         1.597892
 H        -3.029234        -1.638115         2.657388
 H        -4.578730        -1.463342         3.411874
 H        -4.278771        -2.610188         2.131697
