19
Iteration:  2770
 C         0.332891        -1.515026        -0.356418
 C        -0.534222        -0.423458        -0.143183
 C        -1.475089         0.315924         0.111150
 C        -2.649484         1.109371         0.254721
 O        -2.477936         2.552767         0.133092
 C        -3.628802         0.715951         1.392898
 C        -4.422474        -0.563469         1.335962
 C        -4.377572        -1.560123         2.511630
 O        -4.858843        -0.896917         0.307707
 H         0.673623        -1.924504         0.569525
 H        -0.241532        -2.295857        -0.851225
 H         1.203039        -1.361515        -0.984977
 H        -3.215099         0.864957        -0.618343
 H        -2.006605         2.828454         0.881703
 H        -3.109138         0.802289         2.325725
 H        -4.342512         1.565527         1.477319
 H        -4.494533        -1.300568         3.608413
 H        -4.986249        -2.495229         2.403750
 H        -3.307191        -1.927237         2.355074
