19
Iteration:   610charge 0 multiplicity 1
 C         1.197968        -0.423367        -0.651734
 C        -0.095163        -0.052598        -0.134525
 C        -1.221200         0.246661         0.224300
 C        -2.559018         0.624491         0.567312
 O        -2.611765         2.019573         0.822870
 C        -3.358670        -0.145939         1.644314
 C        -4.650798        -0.690343         1.081968
 C        -5.918247        -0.586071         1.933673
 O        -4.737235        -1.283435         0.042852
 H         2.052843         0.169550        -0.381618
 H         1.364008        -1.406818        -0.196390
 H         1.107280        -0.676863        -1.697350
 H        -3.129537         0.626855        -0.386355
 H        -2.160811         2.090136         1.751854
 H        -2.858267        -1.142353         1.779601
 H        -3.302293         0.485334         2.460069
 H        -6.337350         0.414736         1.641918
 H        -6.551393        -1.462721         1.712728
 H        -5.599612        -0.391597         2.997923
