19
Iteration:  3254
 C         0.572963        -1.299872        -0.798355
 C        -0.679174        -0.573168        -0.393964
 C        -1.426329         0.297422         0.084634
 C        -2.650576         1.014093         0.351625
 O        -2.530805         2.480655         0.213080
 C        -3.407941         0.582747         1.703838
 C        -4.313742        -0.674734         1.513871
 C        -5.331525        -1.051693         2.570347
 O        -4.277137        -1.176987         0.415479
 H         0.733713        -2.122640        -0.062427
 H         0.642631        -1.671150        -1.863442
 H         1.290756        -0.487235        -0.540148
 H        -3.425836         0.721694        -0.505907
 H        -2.025986         2.521708        -0.671795
 H        -2.754866         0.708956         2.559638
 H        -4.097789         1.512818         1.909706
 H        -4.973690        -1.679896         3.372694
 H        -5.773065        -0.120159         2.884044
 H        -6.098032        -1.606876         1.995110
