19
Iteration:  2760charge 0 multiplicity 1
 C         0.306149        -1.564230        -0.334419
 C        -0.584033        -0.403902        -0.215209
 C        -1.420090         0.375838         0.112351
 C        -2.673249         1.162761         0.236873
 O        -2.437478         2.549193         0.087661
 C        -3.632833         0.789036         1.530879
 C        -4.347655        -0.575637         1.415269
 C        -4.380640        -1.638761         2.450881
 O        -4.871735        -0.955302         0.279611
 H         0.507078        -1.734282         0.691458
 H        -0.256855        -2.434953        -0.631127
 H         1.257359        -1.379385        -0.813232
 H        -3.365097         0.927468        -0.577328
 H        -1.950672         2.915412         0.806575
 H        -3.277633         0.928561         2.560156
 H        -4.450626         1.470208         1.194390
 H        -4.335439        -1.186293         3.520474
 H        -5.245859        -2.321368         2.150838
 H        -3.412952        -2.231238         2.361026
