19
Iteration:   328
 C         1.307989        -0.591886        -0.026474
 C        -0.015255        -0.056245         0.024134
 C        -1.211505         0.143896         0.144864
 C        -2.618442         0.542436         0.129752
 O        -2.776525         1.975328         0.177294
 C        -3.346410        -0.129934         1.371913
 C        -4.741109        -0.553726         1.257611
 C        -5.049027        -1.775100         2.052249
 O        -5.455100         0.119522         0.522965
 H         1.849515        -0.183770         0.834713
 H         1.401986        -1.696325         0.010923
 H         1.788053        -0.388338        -1.015892
 H        -3.173058         0.247698        -0.723104
 H        -3.244460         2.295905        -0.701852
 H        -2.726064        -0.828381         1.834437
 H        -3.338694         0.705532         2.116591
 H        -4.573233        -1.746911         3.026422
 H        -6.096232        -2.127535         1.982547
 H        -4.391025        -2.535157         1.503380
