19
Iteration:  2597
 C         0.232325        -1.551464        -0.151322
 C        -0.787750        -0.482874         0.094796
 C        -1.663023         0.314515        -0.026169
 C        -2.835531         1.218329         0.071909
 O        -2.380662         2.547536         0.458506
 C        -3.751497         0.883364         1.183330
 C        -4.200247        -0.645864         1.091439
 C        -3.857288        -1.507716         2.459130
 O        -4.939008        -1.042389         0.232093
 H         0.785948        -1.817231         0.787459
 H        -0.353026        -2.538060        -0.269815
 H         1.006579        -1.417137        -0.989039
 H        -3.326465         1.416006        -0.966746
 H        -1.686028         2.398325         1.220420
 H        -3.138290         1.057849         2.154985
 H        -4.605876         1.526410         1.484268
 H        -3.391772        -2.475684         2.249060
 H        -3.250514        -1.068677         3.197875
 H        -4.848311        -1.710274         2.904893
