19
Iteration:  2925charge 0 multiplicity 1
 C         0.704561        -1.052060        -0.472784
 C        -0.695983        -0.679691        -0.157679
 C        -1.604392         0.114706        -0.292551
 C        -2.658239         1.058089         0.135019
 O        -2.374585         2.499032         0.310808
 C        -3.334822         0.483325         1.525475
 C        -4.445248        -0.616805         1.340307
 C        -4.875850        -1.198496         2.691520
 O        -4.902398        -1.054797         0.369664
 H         1.109368        -1.539197         0.402601
 H         0.873505        -1.758690        -1.299050
 H         1.264085        -0.104553        -0.556314
 H        -3.369835         1.081315        -0.633650
 H        -1.366905         2.691359         0.433635
 H        -2.523410         0.125591         2.122067
 H        -3.952225         1.300604         1.953136
 H        -5.052524        -0.353377         3.463651
 H        -5.786381        -1.762367         2.375426
 H        -4.121397        -1.921576         3.122151
