19
Iteration:  4293charge 0 multiplicity 1
 C         0.961475        -1.063506         0.077113
 C        -0.388492        -0.405143         0.025027
 C        -1.562577        -0.066189         0.003286
 C        -2.788748         0.717353         0.058070
 O        -2.337169         2.097322         0.026324
 C        -3.735526         0.766732         1.264555
 C        -4.663583        -0.419041         1.271993
 C        -3.816919        -1.663187         1.715543
 O        -5.848628        -0.359457         1.096909
 H         1.779982        -0.407602        -0.310711
 H         1.127405        -1.314639         1.145750
 H         0.874795        -2.025493        -0.403412
 H        -3.313279         0.609353        -1.037155
 H        -1.468207         2.151079         0.347701
 H        -3.119574         0.775574         2.155345
 H        -4.300458         1.705155         1.226114
 H        -2.931152        -1.693022         1.057219
 H        -3.632155        -1.252091         2.747791
 H        -4.427566        -2.565841         1.641869
