19
Iteration:  1785
 C         0.447310        -1.249875        -0.132269
 C        -0.603448        -0.401789         0.224548
 C        -1.510533         0.395997         0.251301
 C        -2.686947         1.218932         0.281901
 O        -2.450057         2.622702         0.615016
 C        -3.880627         0.640742         1.198009
 C        -4.323584        -0.804405         1.005544
 C        -4.329456        -1.631915         2.254445
 O        -4.781776        -1.105885        -0.139052
 H         1.198801        -0.760659        -0.893011
 H         1.104056        -1.740004         0.626710
 H         0.067673        -2.177238        -0.586421
 H        -3.182668         1.225189        -0.711620
 H        -1.954266         2.657282         1.403243
 H        -3.636212         0.881915         2.295932
 H        -4.773124         1.301382         0.932524
 H        -3.326859        -1.845715         2.571167
 H        -4.529269        -1.083109         3.164973
 H        -4.880899        -2.550582         2.082691
