19
Iteration:  3775
 C         0.441317        -1.616543        -0.080360
 C        -0.567776        -0.591818         0.164053
 C        -1.440639         0.277596         0.179284
 C        -2.701984         0.981363         0.081111
 O        -2.517925         2.525640         0.014842
 C        -3.734444         0.858076         1.220671
 C        -4.397172        -0.540808         1.316040
 C        -3.662546        -1.504385         2.139162
 O        -5.444574        -0.745094         0.681389
 H         0.247157        -2.133780        -1.009388
 H         1.424722        -1.099022        -0.219685
 H         0.434702        -2.435543         0.735789
 H        -3.231948         0.606283        -0.790021
 H        -2.998904         2.854782        -0.835590
 H        -3.261760         1.194919         2.188737
 H        -4.476687         1.625791         0.901252
 H        -2.650421        -1.683565         1.748116
 H        -3.529451        -1.084709         3.127697
 H        -4.091384        -2.498011         2.299794
