19
Iteration:  1344
 C         1.081768        -0.836880        -0.100596
 C        -0.165243        -0.141758         0.107209
 C        -1.299289         0.396907         0.105759
 C        -2.760244         0.938081         0.295984
 O        -2.864516         2.400649         0.341915
 C        -3.347021         0.089361         1.535416
 C        -4.442830        -0.878792         1.101834
 C        -5.348898        -1.241478         2.299593
 O        -4.678781        -1.057190        -0.070525
 H         1.537699        -0.548600        -1.010134
 H         1.603598        -0.706991         0.810821
 H         0.825074        -1.874465        -0.100080
 H        -3.205788         0.578072        -0.602458
 H        -3.864867         2.691439         0.327739
 H        -2.504897        -0.461851         1.937026
 H        -3.639572         0.855475         2.278017
 H        -5.622086        -2.330521         2.297741
 H        -5.110575        -0.697901         3.216696
 H        -6.202881        -0.724220         1.859416
