19
Iteration:  3657charge 0 multiplicity 1
 C         0.439886        -1.140915        -0.002590
 C        -0.956987        -0.728226        -0.124452
 C        -1.949305         0.009630        -0.309987
 C        -2.800675         1.127819         0.145860
 O        -2.116818         2.324104         0.053153
 C        -3.698695         0.907358         1.384558
 C        -4.294657        -0.519955         1.398661
 C        -3.931628        -1.538468         2.499703
 O        -5.011602        -0.856741         0.398309
 H         0.771408        -2.056104        -0.471638
 H         1.112495        -0.355103        -0.368374
 H         0.740537        -1.354826         1.000218
 H        -3.573471         1.183657        -0.644965
 H        -1.666359         2.480345         0.878462
 H        -3.141219         0.992397         2.308987
 H        -4.497784         1.633229         1.417701
 H        -2.882666        -1.718774         2.573269
 H        -4.353359        -1.024588         3.355513
 H        -4.432115        -2.485666         2.318961
