19
Iteration:  4767
 C         0.500979        -1.083332        -0.397691
 C        -0.683086        -0.250555        -0.717510
 C        -1.848278         0.083602        -0.406072
 C        -2.808171         0.956003         0.202716
 O        -2.247298         2.360725         0.343484
 C        -3.175854         0.401349         1.578411
 C        -4.317642        -0.684058         1.531659
 C        -5.360664        -0.808483         2.713984
 O        -4.354191        -1.332578         0.466159
 H         1.076745        -0.597481         0.377884
 H         0.164460        -2.064126        -0.010861
 H         1.312989        -1.240982        -1.143108
 H        -3.861622         1.184179        -0.251172
 H        -1.238337         2.217694         0.205357
 H        -2.238922         0.101851         2.103505
 H        -3.376303         1.384889         2.120630
 H        -4.546129        -1.038545         3.467641
 H        -5.758200         0.160119         2.976588
 H        -5.855543        -1.766877         2.630409
