19
Iteration:   338charge 0 multiplicity 1
 C         1.302187        -0.626013        -0.031787
 C        -0.023290        -0.026043        -0.020629
 C        -1.219704         0.131698         0.112193
 C        -2.644068         0.498891         0.157649
 O        -2.717840         2.046504         0.185064
 C        -3.299899        -0.070556         1.445245
 C        -4.774804        -0.533946         1.238443
 C        -5.007931        -1.753770         2.049720
 O        -5.496330         0.030575         0.454957
 H         1.997204        -0.249300         0.763652
 H         1.095273        -1.708289         0.161319
 H         1.937912        -0.348244        -0.908215
 H        -2.979273         0.077166        -0.758724
 H        -3.684377         2.324757        -0.121415
 H        -2.833016        -1.027328         1.690228
 H        -3.205075         0.570002         2.330438
 H        -4.826744        -1.506078         3.092749
 H        -6.062823        -2.094285         2.030300
 H        -4.293818        -2.500022         1.582348
