19
Iteration:  2830
 C         0.629138        -1.195789        -0.456481
 C        -0.725850        -0.710693        -0.066786
 C        -1.603031         0.163342        -0.007065
 C        -2.747192         1.093505         0.133052
 O        -2.294974         2.489631         0.245925
 C        -3.556866         0.736524         1.377193
 C        -4.456355        -0.579010         1.294364
 C        -4.513268        -1.467483         2.682970
 O        -4.967290        -0.916954         0.323836
 H         1.019850        -1.737336         0.469051
 H         0.583343        -2.053019        -1.181006
 H         1.334173        -0.406034        -0.784476
 H        -3.365139         1.023590        -0.846214
 H        -1.367646         2.417089         0.552591
 H        -2.834028         0.595560         2.257138
 H        -4.325907         1.482392         1.587735
 H        -5.139774        -0.924942         3.372790
 H        -4.801668        -2.459301         2.390727
 H        -3.506491        -1.399416         3.083181
