19
Iteration:  1638charge 0 multiplicity 1
 C         0.431840        -1.222930         0.125956
 C        -0.574366        -0.190135        -0.076606
 C        -1.509739         0.607194         0.053156
 C        -2.823460         1.114999         0.249242
 O        -2.486488         2.598415         0.560190
 C        -3.606162         0.511375         1.372308
 C        -4.347123        -0.860465         1.034490
 C        -4.653252        -1.737442         2.237907
 O        -4.541258        -1.087023        -0.126988
 H         1.274223        -1.225363        -0.569267
 H         0.830869        -1.031615         1.141964
 H        -0.097169        -2.223501         0.105207
 H        -3.374123         1.244667        -0.770256
 H        -1.750031         2.594149         1.277083
 H        -2.974289         0.592528         2.272623
 H        -4.419164         1.232295         1.531258
 H        -5.666729        -2.222994         2.179786
 H        -3.932208        -2.537912         2.350027
 H        -4.720326        -1.081982         3.083554
