19
Iteration:   308
 C         1.375800        -0.501167        -0.028495
 C        -0.066672        -0.224035         0.128403
 C        -1.190530         0.238423         0.086578
 C        -2.622852         0.469631         0.105304
 O        -2.896596         1.921538         0.083116
 C        -3.193211        -0.036508         1.420596
 C        -4.690988        -0.551997         1.213746
 C        -5.136318        -1.864494         1.972113
 O        -5.503257         0.182707         0.662156
 H         1.972238        -0.114807         0.772820
 H         1.577940        -1.579465        -0.067186
 H         1.760964        -0.169850        -1.014275
 H        -3.091809        -0.027825        -0.789909
 H        -2.226448         2.425694        -0.505263
 H        -2.646986        -0.807557         1.813561
 H        -3.148515         0.780284         2.221357
 H        -4.640967        -1.855726         2.927989
 H        -6.222374        -1.680740         2.097128
 H        -4.942237        -2.785529         1.362404
