19
Iteration:   491
 C         1.158208        -0.685186        -0.361493
 C        -0.131228        -0.135561        -0.061050
 C        -1.205917         0.412709         0.055457
 C        -2.548126         0.778829         0.377761
 O        -2.605631         2.153200         0.740156
 C        -3.263934        -0.062960         1.539839
 C        -4.704392        -0.656895         1.083844
 C        -5.577698        -1.112495         2.232945
 O        -5.004194        -0.959802        -0.031925
 H         1.801901        -0.021525         0.207177
 H         1.379352        -1.732944        -0.095077
 H         1.280373        -0.567746        -1.457360
 H        -3.230432         0.580488        -0.490417
 H        -2.810207         2.681908        -0.146087
 H        -2.917104        -1.109509         1.832112
 H        -3.563922         0.571195         2.386991
 H        -5.687002        -0.302586         2.905124
 H        -6.454205        -1.593976         1.786194
 H        -5.030346        -1.881032         2.846638
