19
Iteration:  2492
 C         0.386154        -1.460034        -0.154491
 C        -0.678015        -0.457815         0.275618
 C        -1.689737         0.178854         0.177566
 C        -2.857632         1.150009         0.190573
 O        -2.353883         2.485794         0.224072
 C        -3.942156         0.838949         1.298513
 C        -4.335054        -0.592253         1.192675
 C        -3.692763        -1.519541         2.112513
 O        -5.072340        -0.885891         0.293836
 H         1.148061        -1.541600         0.609830
 H        -0.017494        -2.425098        -0.278424
 H         0.893925        -1.241332        -1.066227
 H        -3.375840         1.032261        -0.719373
 H        -1.534375         2.397654         0.864138
 H        -3.569492         0.823511         2.320018
 H        -4.759511         1.489984         1.163642
 H        -4.453126        -1.864247         2.883085
 H        -3.307163        -2.477795         1.659523
 H        -2.782585        -1.252002         2.671110
