19
Iteration:  3128
 C         0.757334        -1.025559        -0.605432
 C        -0.593232        -0.469837        -0.538730
 C        -1.538356         0.241953        -0.227482
 C        -2.658849         1.075098         0.129432
 O        -2.121776         2.384643         0.417021
 C        -3.575035         0.560419         1.405252
 C        -4.618298        -0.564706         1.403849
 C        -5.243973        -1.064387         2.839539
 O        -4.664567        -1.442839         0.512854
 H         0.663090        -1.620035         0.297634
 H         1.063710        -1.605533        -1.452258
 H         1.497130        -0.254661        -0.442963
 H        -3.373129         1.072872        -0.785920
 H        -1.111379         2.323367         0.571629
 H        -2.750085         0.271333         2.191397
 H        -4.062542         1.386795         1.881231
 H        -4.598660        -0.674647         3.676240
 H        -6.278412        -0.692361         3.013154
 H        -5.085366        -2.145678         2.798769
