19
Iteration:  4911charge 0 multiplicity 1
 C         0.628242        -1.093267        -1.201345
 C        -0.359267        -0.313193        -0.410015
 C        -1.301815         0.118662         0.199431
 C        -2.546072         0.878521         0.419871
 O        -2.390129         2.260417         0.227214
 C        -3.533903         0.650545         1.633545
 C        -4.574688        -0.582228         1.512361
 C        -5.564104        -0.783068         2.556527
 O        -4.350273        -1.453402         0.712555
 H         1.588271        -1.215064        -0.713157
 H         0.249134        -2.107327        -1.351984
 H         0.800950        -0.640672        -2.145173
 H        -3.297731         0.573206        -0.456079
 H        -1.778843         2.429971        -0.477789
 H        -3.130019         0.628232         2.711169
 H        -4.057650         1.601932         1.677932
 H        -5.364928        -0.796867         3.668008
 H        -6.288701         0.039041         2.522095
 H        -6.092632        -1.777040         2.534966
