19
Iteration:  3313
 C         0.315858        -1.349375        -0.810053
 C        -0.448046        -0.388975        -0.063887
 C        -1.436897         0.323799         0.144166
 C        -2.665106         1.064487         0.248384
 O        -2.467799         2.458138         0.313761
 C        -3.535171         0.649664         1.449627
 C        -4.328804        -0.732028         1.376620
 C        -5.134707        -1.036865         2.710839
 O        -4.341732        -1.329513         0.345996
 H         0.426127        -2.403404        -0.481078
 H         0.022966        -1.355270        -1.865978
 H         1.329977        -0.976286        -0.871865
 H        -3.161720         0.791639        -0.761640
 H        -1.860689         2.710075        -0.420032
 H        -2.951193         0.910958         2.353376
 H        -4.333433         1.358739         1.385531
 H        -4.548348        -1.699781         3.381862
 H        -5.383737        -0.141650         3.303969
 H        -6.038020        -1.450431         2.275696
