19
Iteration:  2171charge 0 multiplicity 1
 C         0.756760        -1.091558         0.231875
 C        -0.481747        -0.389472         0.083284
 C        -1.585827         0.185323         0.023651
 C        -2.695140         1.102648         0.108673
 O        -2.145177         2.393723         0.382338
 C        -3.879574         0.696697         1.116867
 C        -4.598941        -0.646002         1.144756
 C        -3.818542        -1.734064         1.760000
 O        -5.741347        -0.819169         0.630165
 H         1.469196        -0.572709         0.793041
 H         0.680164        -2.025033         0.814386
 H         1.056899        -1.518594        -0.723613
 H        -3.147833         1.089529        -0.884754
 H        -1.416846         2.090103         1.046083
 H        -3.640425         1.031060         2.128943
 H        -4.672670         1.402670         0.797679
 H        -3.453193        -1.273187         2.693569
 H        -4.335764        -2.698206         2.004642
 H        -3.022391        -2.007976         1.020454
