19
Iteration:   115charge 0 multiplicity 1
 C         1.532064         0.168893         0.115751
 C         0.061612         0.055658         0.010320
 C        -1.127081        -0.138788        -0.070258
 C        -2.596517        -0.089925        -0.087084
 O        -2.948103         1.258377        -0.344861
 C        -3.142496        -0.490821         1.375738
 C        -4.691399        -0.323280         1.521421
 C        -5.633121        -1.532186         1.451483
 O        -5.222144         0.776066         1.603903
 H         1.878692         0.366122         1.168671
 H         1.980948        -0.812487        -0.218157
 H         1.950736         0.894236        -0.634649
 H        -3.045190        -0.893393        -0.774375
 H        -3.978128         1.242909        -0.371323
 H        -2.811073        -1.529386         1.708693
 H        -2.705480         0.234753         2.087545
 H        -5.554593        -2.032945         2.495451
 H        -6.747523        -1.265344         1.382527
 H        -5.361242        -2.338321         0.740747
