19
Iteration:   443
 C         1.158849        -0.669637        -0.199179
 C        -0.117054        -0.117651        -0.091385
 C        -1.252192         0.258197         0.045687
 C        -2.634346         0.721933         0.288721
 O        -2.679784         2.174579         0.546755
 C        -3.324502        -0.035211         1.421487
 C        -4.672529        -0.654548         1.122797
 C        -5.317389        -1.360654         2.359188
 O        -5.068040        -0.578308        -0.056273
 H         1.823864        -0.246994         0.556808
 H         0.988608        -1.705214         0.066673
 H         1.425918        -0.754036        -1.219033
 H        -3.155397         0.395891        -0.637714
 H        -3.046441         2.248645         1.463745
 H        -2.801739        -0.994491         1.722383
 H        -3.388484         0.648277         2.245759
 H        -5.379354        -0.634010         3.219984
 H        -6.214776        -1.915851         2.076748
 H        -4.650813        -2.093992         2.782924
