19
Iteration:  1037
 C         1.507915         0.122172         0.337255
 C         0.059687         0.159340         0.149446
 C        -1.173797         0.091772         0.189891
 C        -2.613582         0.136374        -0.069583
 O        -3.095529         1.542414         0.277183
 C        -3.227319        -0.914555         0.830108
 C        -4.710397        -0.627619         1.094894
 C        -5.078519        -0.438701         2.512699
 O        -5.478569        -0.396201         0.201834
 H         2.044543         0.883892        -0.204943
 H         1.796046         0.257634         1.415639
 H         1.944189        -0.880285         0.041808
 H        -2.677045        -0.128043        -1.103911
 H        -4.014664         1.623014         0.402216
 H        -3.229473        -1.846857         0.282155
 H        -2.616622        -1.074421         1.765475
 H        -4.318264         0.051157         3.070956
 H        -6.001119         0.082472         2.696833
 H        -5.210805        -1.480208         2.933480
