19
Iteration:  4743charge 0 multiplicity 1
 C         0.507370        -1.110865        -0.463796
 C        -0.729360        -0.393207        -0.520931
 C        -1.765314         0.204991        -0.313259
 C        -2.800150         1.053039         0.166954
 O        -2.217514         2.316443         0.339426
 C        -3.407491         0.464761         1.590906
 C        -4.314286        -0.616482         1.443512
 C        -5.101178        -0.871060         2.706395
 O        -4.430333        -1.382213         0.453977
 H         1.141818        -0.639302         0.205457
 H         0.343690        -2.121578        -0.107961
 H         1.175723        -1.144693        -1.342918
 H        -3.773470         1.173744        -0.435552
 H        -1.465449         2.332466        -0.215679
 H        -2.599998         0.089272         2.237316
 H        -3.806719         1.337134         2.226306
 H        -4.416600        -1.096499         3.524847
 H        -5.408670         0.206776         2.835129
 H        -5.756102        -1.695869         2.565041
