19
Iteration:  1754charge 0 multiplicity 1
 C         0.373864        -1.291252        -0.055873
 C        -0.521278        -0.217065         0.181025
 C        -1.584912         0.343247         0.252686
 C        -2.803667         1.177286         0.223969
 O        -2.498686         2.531341         0.534434
 C        -3.835412         0.745909         1.396182
 C        -4.326566        -0.712033         1.019909
 C        -4.377181        -1.698936         2.173466
 O        -4.578740        -1.084222        -0.122182
 H         1.144309        -1.150211        -0.882730
 H         1.024831        -1.755533         0.746758
 H        -0.233994        -2.144207        -0.509829
 H        -3.339048         1.074720        -0.694387
 H        -1.741814         2.635827         1.224345
 H        -3.089882         0.955736         2.204963
 H        -4.821253         1.351859         1.433304
 H        -3.596839        -2.507632         1.882628
 H        -4.106421        -1.407846         3.213202
 H        -5.364967        -2.176483         1.993697
