19
Iteration:  4909
 C         0.637831        -1.115304        -1.209286
 C        -0.329449        -0.307897        -0.417567
 C        -1.299056         0.127367         0.192799
 C        -2.565467         0.883306         0.445998
 O        -2.395600         2.272531         0.227935
 C        -3.535014         0.650480         1.621269
 C        -4.575169        -0.581790         1.506912
 C        -5.562415        -0.789448         2.557551
 O        -4.365162        -1.458326         0.725828
 H         1.565473        -1.177301        -0.707661
 H         0.194697        -2.134504        -1.328601
 H         0.842897        -0.646224        -2.196112
 H        -3.232330         0.527366        -0.431904
 H        -1.711027         2.471487        -0.491484
 H        -3.143863         0.587416         2.646087
 H        -4.050384         1.661539         1.697476
 H        -5.416290        -0.779973         3.677239
 H        -6.318487         0.046205         2.564087
 H        -6.052134        -1.824409         2.470050
