19
Iteration:  2987charge 0 multiplicity 1
 C         0.598381        -1.340369        -0.652732
 C        -0.239779        -0.103584        -0.344081
 C        -1.397244         0.144436        -0.059580
 C        -2.642758         0.883924         0.259352
 O        -2.640669         2.300600         0.246956
 C        -3.400562         0.513862         1.659073
 C        -4.569545        -0.517370         1.345916
 C        -5.044846        -1.084510         2.707338
 O        -4.686167        -1.075022         0.303439
 H         0.676784        -1.903362         0.312536
 H         0.295416        -1.956717        -1.528656
 H         1.677023        -1.081276        -0.979623
 H        -3.336679         0.619591        -0.627194
 H        -1.878427         2.684866         0.842543
 H        -2.806619         0.426759         2.588136
 H        -3.805280         1.519162         1.980030
 H        -4.772120        -0.512370         3.572561
 H        -6.135564        -1.118124         2.741082
 H        -4.594447        -2.063977         2.807508
