19
Iteration:   468charge 0 multiplicity 1
 C         1.260418        -0.722227        -0.286845
 C        -0.110660        -0.165987        -0.152552
 C        -1.202130         0.333728         0.126279
 C        -2.675354         0.842449         0.332140
 O        -2.739557         2.222666         0.645263
 C        -3.258930        -0.029863         1.428963
 C        -4.607936        -0.781630         1.117291
 C        -5.515360        -1.225302         2.263412
 O        -5.102685        -0.774221         0.010688
 H         1.872280        -0.133083         0.400178
 H         1.294109        -1.773548         0.032131
 H         1.556236        -0.736570        -1.333356
 H        -3.277276         0.548740        -0.566515
 H        -1.875686         2.510253         0.795553
 H        -2.559296        -0.884106         1.788733
 H        -3.487211         0.651948         2.255878
 H        -5.630447        -0.482654         3.037665
 H        -6.422945        -1.693107         1.854098
 H        -4.956055        -2.008881         2.800935
