19
Iteration:   748charge 0 multiplicity 1
 C         1.332183        -0.318616        -0.397094
 C        -0.037420         0.068435        -0.129388
 C        -1.173740         0.304040         0.201184
 C        -2.601371         0.541070         0.409479
 O        -2.794074         1.867073         0.847014
 C        -3.205658        -0.490651         1.360453
 C        -4.718168        -0.759389         1.064740
 C        -5.754047        -0.140085         2.038329
 O        -4.942582        -1.354281         0.049074
 H         2.182359         0.428474        -0.373624
 H         1.622469        -1.017565         0.431492
 H         1.374640        -0.980568        -1.260407
 H        -3.061665         0.631918        -0.597144
 H        -3.065507         1.907199         1.758516
 H        -2.797742        -1.494696         1.074622
 H        -2.899920        -0.246244         2.421979
 H        -5.229119         0.692150         2.517733
 H        -6.698520         0.225541         1.685623
 H        -6.014118        -0.658873         2.942964
