19
Iteration:   424charge 0 multiplicity 1
 C         1.186676        -0.724186        -0.146141
 C        -0.178238        -0.080191        -0.003052
 C        -1.331161         0.302116         0.004197
 C        -2.697248         0.716912         0.288956
 O        -2.622863         2.089240         0.518226
 C        -3.266001        -0.088625         1.531801
 C        -4.653136        -0.545189         1.139974
 C        -5.159481        -1.383180         2.202713
 O        -5.224247        -0.538808         0.013575
 H         1.866187        -0.190606         0.556555
 H         1.281936        -1.811280         0.039297
 H         1.534018        -0.617304        -1.193200
 H        -3.238022         0.420960        -0.672973
 H        -3.521259         2.378174         0.357125
 H        -2.486029        -0.953906         1.710269
 H        -3.173172         0.557345         2.421354
 H        -5.303233        -0.789137         3.122265
 H        -6.109048        -1.870745         1.908534
 H        -4.395790        -2.105752         2.525569
