19
Iteration:  4413
 C         0.456998        -1.656028         0.098477
 C        -0.588218        -0.545521         0.133309
 C        -1.523452         0.247363         0.176307
 C        -2.734573         1.051899         0.146562
 O        -2.467612         2.514673        -0.015170
 C        -3.799562         0.893928         1.323492
 C        -4.424639        -0.494296         1.257142
 C        -3.495597        -1.558311         1.785761
 O        -5.561607        -0.756595         0.794864
 H         1.514579        -1.231522        -0.046591
 H         0.379130        -2.197255         1.081114
 H         0.274826        -2.364945        -0.726144
 H        -3.314825         0.682297        -0.617824
 H        -1.645378         2.560846        -0.582363
 H        -3.316878         1.042984         2.301837
 H        -4.539860         1.706151         1.060056
 H        -2.705000        -1.654908         1.000993
 H        -3.120853        -1.257102         2.798520
 H        -4.054913        -2.483064         1.730900
