19
Iteration:  4537charge 0 multiplicity 1
 C         0.188844        -1.525355         0.179002
 C        -0.761503        -0.489466        -0.253108
 C        -1.757151         0.192544        -0.310767
 C        -2.807331         1.210359         0.013669
 O        -2.435238         2.563557         0.140343
 C        -3.542381         0.804686         1.423579
 C        -4.248078        -0.596608         1.401708
 C        -3.916859        -1.661698         2.409779
 O        -4.927804        -0.824621         0.402323
 H         1.044131        -0.926334         0.487113
 H        -0.211475        -2.048947         1.096949
 H         0.521733        -2.227986        -0.686610
 H        -3.586756         1.242524        -0.681098
 H        -1.540613         2.478387         0.608906
 H        -2.898179         0.948029         2.272394
 H        -4.353955         1.508560         1.404199
 H        -2.855071        -1.888033         2.124162
 H        -3.937641        -1.309704         3.461414
 H        -4.522535        -2.614679         2.356938
