19
Iteration:  2209
 C         0.814389        -1.119722         0.073990
 C        -0.417579        -0.383126         0.158295
 C        -1.485177         0.109668         0.247359
 C        -2.652081         0.978512         0.164855
 O        -2.310848         2.345370         0.314705
 C        -3.871095         0.781769         1.094794
 C        -4.536276        -0.604933         1.074726
 C        -3.904137        -1.713458         1.763611
 O        -5.728846        -0.768844         0.669220
 H         1.765394        -0.570079         0.404679
 H         0.628229        -2.147180         0.428399
 H         1.084831        -1.052445        -1.006897
 H        -2.928069         0.998427        -0.958127
 H        -1.875722         2.579966         1.138905
 H        -3.537497         1.162246         2.111811
 H        -4.644776         1.405565         0.636046
 H        -4.467375        -1.760762         2.693190
 H        -4.155793        -2.661373         1.315090
 H        -2.912367        -1.575941         2.087771
