19
Iteration:  2870
 C         0.614015        -1.091632        -0.330602
 C        -0.597746        -0.250601        -0.403767
 C        -1.791863        -0.004327        -0.161525
 C        -2.758550         0.929029         0.293136
 O        -2.118494         2.245495         0.179820
 C        -3.609044         0.763608         1.514356
 C        -4.406810        -0.661717         1.386492
 C        -4.685694        -1.391367         2.652855
 O        -4.865738        -0.894766         0.323529
 H         0.515839        -1.488146         0.630137
 H         0.491637        -1.826359        -1.103782
 H         1.619787        -0.750887        -0.503973
 H        -3.473068         0.981436        -0.473418
 H        -1.185423         2.249319         0.514223
 H        -3.033299         1.086890         2.371676
 H        -4.371131         1.549679         1.413056
 H        -5.166907        -0.862158         3.572417
 H        -5.322929        -2.262387         2.389980
 H        -3.765860        -1.625694         3.220461
