19
Iteration:  3325
 C         0.416711        -1.377623        -0.813195
 C        -0.570486        -0.480448        -0.165089
 C        -1.343738         0.459020         0.171398
 C        -2.653800         1.109580         0.236148
 O        -2.397271         2.532790         0.315071
 C        -3.616488         0.697660         1.377568
 C        -4.289455        -0.708902         1.444330
 C        -5.102292        -1.115535         2.698290
 O        -4.443020        -1.408404         0.379888
 H         0.346620        -2.337904        -0.290030
 H         0.177096        -1.490061        -1.854090
 H         1.416718        -1.010284        -0.645965
 H        -3.324475         0.849301        -0.657805
 H        -1.689439         2.727844        -0.392678
 H        -3.225432         0.769233         2.418275
 H        -4.422192         1.365940         1.381438
 H        -4.731780        -1.884302         3.423221
 H        -5.383889        -0.175439         3.201858
 H        -6.046776        -1.634552         2.422862
