19
Iteration:  1376charge 0 multiplicity 1
 C         0.860669        -0.893565         0.008120
 C        -0.269015        -0.021643        -0.028528
 C        -1.271840         0.590258         0.039813
 C        -2.629678         0.903224         0.220471
 O        -2.755793         2.344801         0.515867
 C        -3.395289         0.094991         1.431335
 C        -4.515477        -0.733910         1.106359
 C        -5.304838        -1.222197         2.233940
 O        -4.633651        -1.265995        -0.000250
 H         1.607501        -0.831758        -0.745619
 H         1.394442        -0.593434         0.922712
 H         0.343288        -1.878496        -0.057434
 H        -3.159176         0.636220        -0.643002
 H        -3.254205         2.955811         0.004086
 H        -2.638198        -0.398486         2.049153
 H        -3.641689         0.967918         2.095871
 H        -4.953476        -2.291943         2.336689
 H        -5.091992        -0.730760         3.181882
 H        -6.328886        -1.521442         1.970015
