19
Iteration:   684
 C         1.308466        -0.337749        -0.582421
 C        -0.080640        -0.156776        -0.151240
 C        -1.179096         0.278267         0.219236
 C        -2.598360         0.646607         0.464079
 O        -2.687039         2.050190         0.899486
 C        -3.292659        -0.369810         1.500744
 C        -4.702085        -0.702975         1.098391
 C        -5.996344        -0.351024         1.958040
 O        -4.745635        -1.382603         0.089920
 H         1.977375         0.567242        -0.373897
 H         1.742108        -1.193767        -0.002578
 H         1.320489        -0.690969        -1.623359
 H        -3.229335         0.485815        -0.427471
 H        -2.090962         1.959869         1.687411
 H        -2.762191        -1.372819         1.563686
 H        -3.289448         0.236498         2.438796
 H        -5.811898         0.768456         2.070003
 H        -6.844384        -0.590055         1.325431
 H        -5.866204        -0.777527         2.949526
