19
Iteration:  1726charge 0 multiplicity 1
 C         0.441307        -1.326171         0.048782
 C        -0.710929        -0.395300         0.012960
 C        -1.641472         0.401807         0.203310
 C        -2.819102         1.268793         0.368076
 O        -2.522321         2.643039         0.417860
 C        -3.760491         0.662682         1.505833
 C        -4.234560        -0.758597         1.063305
 C        -4.474879        -1.826518         2.149838
 O        -4.453788        -0.966226        -0.162124
 H         1.164403        -0.994606        -0.701382
 H         0.960550        -1.290530         0.998568
 H         0.246591        -2.352275        -0.259420
 H        -3.508988         1.098464        -0.529887
 H        -1.546824         2.870746         0.658588
 H        -3.173754         0.856951         2.395028
 H        -4.728146         1.139304         1.575843
 H        -4.107431        -2.692193         1.590700
 H        -4.017756        -1.552776         3.107884
 H        -5.532782        -2.034239         2.345076
