19
Iteration:  4329charge 0 multiplicity 1
 C         0.883356        -1.307428        -0.029237
 C        -0.365934        -0.514728         0.021087
 C        -1.370731         0.160028         0.222231
 C        -2.601073         0.956595         0.086875
 O        -2.363503         2.372668        -0.094308
 C        -3.853292         0.859793         1.172717
 C        -4.697101        -0.552295         1.342413
 C        -3.930561        -1.709182         1.812417
 O        -5.831535        -0.596093         1.081478
 H         1.754687        -0.805858        -0.306390
 H         1.103591        -1.689195         0.970650
 H         0.836751        -2.169043        -0.736026
 H        -3.079552         0.572612        -0.901648
 H        -1.463175         2.614252         0.075030
 H        -3.438335         1.027966         2.158717
 H        -4.537203         1.682308         0.942679
 H        -3.033745        -1.958661         1.266418
 H        -3.469537        -1.677414         2.823117
 H        -4.640465        -2.535966         1.900607
