19
Iteration:  1442
 C         0.869342        -0.857901        -0.051692
 C        -0.475995        -0.231668         0.104305
 C        -1.498780         0.443418         0.039028
 C        -2.767265         1.049993         0.238222
 O        -2.645014         2.354368         0.459263
 C        -3.480139         0.415079         1.485331
 C        -4.372161        -0.806459         1.027894
 C        -5.146192        -1.411343         2.219757
 O        -4.562628        -1.216947        -0.062638
 H         1.494058        -0.596013        -0.926722
 H         1.367020        -0.603236         0.926723
 H         0.723485        -2.000533        -0.005994
 H        -3.384458         0.836856        -0.621845
 H        -1.955709         2.494828         1.224045
 H        -2.757630        -0.021535         2.201140
 H        -4.192462         1.136615         1.990627
 H        -4.325347        -1.440912         2.989359
 H        -5.881735        -0.621182         2.456816
 H        -5.575768        -2.418950         2.157274
