19
Iteration:  3756charge 0 multiplicity 1
 C         0.433318        -1.487149        -0.003566
 C        -0.722427        -0.622666        -0.040626
 C        -1.547009         0.235156         0.178815
 C        -2.736086         1.125164        -0.049742
 O        -2.418452         2.447570         0.098620
 C        -3.667755         0.836016         1.101230
 C        -4.292779        -0.551368         1.310031
 C        -3.778004        -1.560840         2.267190
 O        -5.378492        -0.781246         0.750639
 H         0.631362        -2.239195        -0.812044
 H         1.398519        -0.952172         0.020255
 H         0.486677        -2.008621         0.934752
 H        -3.107087         1.028457        -1.031465
 H        -2.612581         2.911048        -0.765090
 H        -3.070884         1.034314         1.969380
 H        -4.446693         1.611677         1.061903
 H        -2.794134        -1.860083         2.093361
 H        -3.897435        -1.265041         3.278909
 H        -4.400424        -2.420842         2.025683
