19
Iteration:  3175
 C         0.600668        -1.028425        -0.571676
 C        -0.609729        -0.352581        -0.283651
 C        -1.749084         0.121279        -0.256837
 C        -2.797433         0.957896         0.144791
 O        -2.246291         2.276291         0.629230
 C        -3.440287         0.471110         1.376659
 C        -4.286067        -0.741882         1.365899
 C        -5.024505        -0.697844         2.648306
 O        -4.620560        -1.431917         0.382437
 H         0.783650        -1.871629         0.089827
 H         0.418913        -1.303376        -1.641444
 H         1.457829        -0.281242        -0.693507
 H        -3.663712         1.186939        -0.655567
 H        -1.318357         2.285531         0.219597
 H        -2.749722         0.490177         2.265034
 H        -4.154551         1.344167         1.565757
 H        -4.377536        -0.409846         3.482433
 H        -5.760478         0.108490         2.618267
 H        -5.347630        -1.662065         2.996862
