19
Iteration:  4556
 C         0.283145        -1.508807         0.022486
 C        -0.794789        -0.569171        -0.358706
 C        -1.724040         0.209694        -0.105955
 C        -2.812850         1.081657         0.181101
 O        -2.460369         2.542634         0.094668
 C        -3.581273         0.844926         1.484935
 C        -4.248596        -0.527161         1.341253
 C        -3.984017        -1.502289         2.457941
 O        -4.844130        -0.893544         0.305703
 H         1.210665        -1.090759         0.447145
 H        -0.200541        -2.158269         0.780725
 H         0.532813        -2.180351        -0.839474
 H        -3.489530         1.016831        -0.674294
 H        -2.122031         2.802166         0.965627
 H        -2.914342         0.813128         2.366670
 H        -4.344330         1.693852         1.567686
 H        -2.979179        -1.883200         2.456148
 H        -4.194198        -1.096362         3.468655
 H        -4.554924        -2.453804         2.267229
