19
Iteration:  2042
 C         0.419567        -1.528174         0.337851
 C        -0.652716        -0.447662         0.315851
 C        -1.482510         0.476409         0.222416
 C        -2.721257         1.144515         0.187055
 O        -2.762801         2.584898         0.209975
 C        -3.736801         0.680784         1.332495
 C        -4.243647        -0.667245         1.037291
 C        -3.638577        -1.903884         1.659165
 O        -5.252979        -0.588552         0.377383
 H         1.501559        -1.217112         0.351373
 H         0.147177        -2.247834         1.153333
 H         0.388922        -2.099607        -0.640824
 H        -3.290894         0.853843        -0.771109
 H        -1.924523         2.848915        -0.026246
 H        -3.138778         0.552805         2.274305
 H        -4.476436         1.503588         1.291375
 H        -3.378028        -2.677421         0.971663
 H        -2.783807        -1.913249         2.243851
 H        -4.420451        -2.386565         2.167247
