19
Iteration:  2394
 C         0.390583        -1.258274         0.264272
 C        -0.550232        -0.203912         0.066664
 C        -1.670596         0.266571        -0.166007
 C        -2.829304         1.040819         0.033803
 O        -2.435334         2.454977         0.156221
 C        -3.483894         0.652636         1.378732
 C        -4.313449        -0.669598         1.253311
 C        -3.980098        -1.867068         1.956393
 O        -5.275191        -0.672728         0.516203
 H         0.938204        -1.025979         1.189665
 H        -0.168013        -2.154649         0.387104
 H         1.163607        -1.454427        -0.447869
 H        -3.519330         1.024410        -0.779468
 H        -1.600132         2.405472         0.771249
 H        -2.697558         0.551464         2.142026
 H        -4.228884         1.417571         1.529604
 H        -2.979865        -1.894429         2.395765
 H        -4.594339        -2.012216         2.826048
 H        -3.993754        -2.701236         1.284469
