19
Iteration:  1684charge 0 multiplicity 1
 C         0.409842        -1.189363         0.135976
 C        -0.790705        -0.477130         0.138931
 C        -1.720909         0.354296        -0.012061
 C        -2.877292         1.222421         0.254303
 O        -2.621161         2.621548         0.485883
 C        -3.467193         0.594747         1.537398
 C        -4.114929        -0.678546         1.041652
 C        -4.553706        -1.701585         2.073378
 O        -4.429732        -0.987462        -0.126348
 H         1.215527        -0.979668        -0.701098
 H         0.997944        -1.177290         1.064314
 H         0.139890        -2.236058        -0.041761
 H        -3.585246         1.139032        -0.659680
 H        -1.750445         2.493833         0.972143
 H        -2.878464         0.229879         2.406467
 H        -4.331804         1.207753         1.900050
 H        -4.788479        -2.560080         1.494609
 H        -3.665059        -2.048457         2.615803
 H        -5.426573        -1.511367         2.657518
