19
Iteration:   502
 C         1.177737        -0.656038        -0.410691
 C        -0.120753        -0.123728        -0.042213
 C        -1.231115         0.350836         0.108090
 C        -2.650048         0.756712         0.396662
 O        -2.560607         2.149169         0.742455
 C        -3.360842        -0.081322         1.488938
 C        -4.692917        -0.667439         1.101796
 C        -5.621554        -1.038485         2.269801
 O        -4.886146        -0.972704        -0.098533
 H         2.040356        -0.127525        -0.012491
 H         1.261825        -1.711995        -0.089424
 H         1.381104        -0.597530        -1.500105
 H        -3.225829         0.596019        -0.550787
 H        -3.349706         2.567790         0.347733
 H        -2.578642        -0.856131         1.824973
 H        -3.252078         0.535917         2.393155
 H        -5.891872        -0.274129         2.950320
 H        -6.576350        -1.527537         2.088806
 H        -4.931050        -1.736781         2.806736
