19
Iteration:  3081charge 0 multiplicity 1
 C         0.661548        -1.103266        -0.682497
 C        -0.482529        -0.316812        -0.259899
 C        -1.607343         0.053571        -0.055336
 C        -2.758142         0.874334         0.245485
 O        -2.454903         2.235549         0.256378
 C        -3.409836         0.525796         1.551972
 C        -4.343178        -0.636334         1.433086
 C        -5.140464        -0.957205         2.714767
 O        -4.556384        -1.059491         0.342973
 H         1.010036        -1.961272        -0.107493
 H         0.436981        -1.351133        -1.733055
 H         1.459147        -0.417891        -0.894301
 H        -3.507276         0.702387        -0.488359
 H        -1.670673         2.401937         0.717801
 H        -2.740506         0.432116         2.447005
 H        -3.992691         1.407506         1.813364
 H        -4.943751        -0.372894         3.646823
 H        -6.148747        -0.691939         2.297940
 H        -5.020348        -2.077265         2.847288
