19
Iteration:  1429
 C         0.847937        -0.900594         0.026448
 C        -0.390579        -0.206591         0.006671
 C        -1.438283         0.450633         0.051404
 C        -2.788899         0.978185         0.235010
 O        -2.730359         2.497100         0.530670
 C        -3.438211         0.256868         1.350697
 C        -4.359794        -0.859255         1.097739
 C        -5.154520        -1.348854         2.270194
 O        -4.587434        -1.207884        -0.070573
 H         1.428032        -0.570180        -0.859687
 H         1.555744        -0.615200         0.886761
 H         0.730769        -2.065106        -0.069605
 H        -3.408098         0.957314        -0.715222
 H        -1.846532         2.606655         0.826832
 H        -2.673212         0.094043         2.142676
 H        -4.045052         1.078573         1.837709
 H        -4.663287        -1.697656         3.186096
 H        -5.822101        -0.533923         2.642147
 H        -5.769971        -2.148704         1.800358
