19
Iteration:  2047
 C         0.390788        -1.514156         0.357077
 C        -0.626401        -0.414173         0.281887
 C        -1.471380         0.434774         0.253293
 C        -2.817506         1.089420         0.190942
 O        -2.729030         2.566901         0.208647
 C        -3.715921         0.684518         1.308151
 C        -4.252375        -0.628310         1.034445
 C        -3.677996        -1.900963         1.646599
 O        -5.234127        -0.586323         0.400466
 H         1.415082        -1.147058         0.325990
 H         0.183266        -2.225277         1.134415
 H         0.471528        -2.018033        -0.589733
 H        -3.290821         1.009689        -0.767224
 H        -1.745566         2.790452        -0.035383
 H        -3.156076         0.516530         2.209120
 H        -4.544461         1.385795         1.389695
 H        -3.052622        -2.504542         0.837674
 H        -2.658116        -1.754294         2.213485
 H        -4.464190        -2.542289         2.186687
