19
Iteration:   335
 C         1.294176        -0.616529        -0.034309
 C        -0.017608        -0.031331        -0.006752
 C        -1.210734         0.127443         0.124580
 C        -2.629964         0.505883         0.150648
 O        -2.738883         2.028912         0.180429
 C        -3.323673        -0.074509         1.417973
 C        -4.779336        -0.561069         1.245529
 C        -5.012839        -1.759944         2.045957
 O        -5.471312         0.061030         0.482232
 H         1.975955        -0.211663         0.777806
 H         1.184221        -1.712761         0.126444
 H         1.903884        -0.345922        -0.899527
 H        -3.049729         0.113545        -0.836023
 H        -3.569327         2.397324        -0.306829
 H        -2.818886        -1.107185         1.803685
 H        -3.248426         0.590482         2.262343
 H        -4.761970        -1.551129         3.126682
 H        -6.044674        -2.078214         2.023972
 H        -4.340298        -2.399010         1.510624
