19
Iteration:  4437
 C         0.301114        -1.605618         0.280675
 C        -0.687187        -0.556412        -0.202466
 C        -1.612898         0.173387         0.214780
 C        -2.767960         1.030797         0.133288
 O        -2.456490         2.459452         0.109298
 C        -3.854923         0.973450         1.257475
 C        -4.269920        -0.491702         1.347989
 C        -3.423162        -1.640212         1.797960
 O        -5.368766        -0.666510         0.714106
 H         1.236934        -1.040697         0.178477
 H         0.109466        -1.891954         1.348628
 H         0.435538        -2.513565        -0.414622
 H        -3.319672         0.653290        -0.658665
 H        -1.976035         2.596138        -0.784477
 H        -3.306453         1.250158         2.116106
 H        -4.717918         1.603069         1.021717
 H        -2.610293        -1.786261         1.089763
 H        -3.138629        -1.374592         2.852812
 H        -4.026246        -2.586015         1.645437
