19
Iteration:  1955
 C         0.435854        -1.424329         0.282022
 C        -0.591266        -0.372440         0.156573
 C        -1.642724         0.305294         0.095126
 C        -2.869048         1.161908         0.135524
 O        -2.456089         2.529854         0.504279
 C        -3.903993         0.842321         1.372132
 C        -4.294282        -0.659678         1.058105
 C        -3.817554        -1.802263         1.904304
 O        -5.050031        -0.893263         0.119931
 H         1.376344        -0.871746         0.150541
 H         0.495590        -1.957776         1.237528
 H         0.441228        -2.180802        -0.512916
 H        -3.333068         1.081649        -0.821696
 H        -1.939363         3.012078        -0.159274
 H        -3.234121         0.888867         2.228587
 H        -4.622180         1.629967         1.507261
 H        -4.673967        -2.368388         2.167096
 H        -3.384776        -2.351487         1.063975
 H        -3.118729        -1.482453         2.621525
