19
Iteration:  2677
 C         0.157011        -1.497147        -0.001245
 C        -0.930365        -0.601425         0.016938
 C        -1.821409         0.249713        -0.154298
 C        -2.876656         1.178227         0.122467
 O        -2.455006         2.599785         0.354721
 C        -3.467547         0.709902         1.436115
 C        -4.113149        -0.652187         1.198191
 C        -4.070251        -1.548430         2.399712
 O        -4.674427        -0.832113         0.134022
 H         0.785879        -1.676231         0.932248
 H        -0.203335        -2.480853        -0.421402
 H         0.833083        -1.126283        -0.822914
 H        -3.651705         1.288626        -0.668830
 H        -1.419509         2.621839         0.386408
 H        -2.774301         0.843764         2.323706
 H        -4.304582         1.361871         1.643858
 H        -3.121308        -1.238598         2.826863
 H        -4.792924        -1.187486         3.172002
 H        -4.088244        -2.559289         2.093077
