19
Iteration:  2583
 C         0.260107        -1.584071        -0.152820
 C        -0.803830        -0.570323         0.143848
 C        -1.649433         0.268325         0.012085
 C        -2.772632         1.277994         0.078944
 O        -2.434325         2.577765         0.469707
 C        -3.750751         0.749276         1.203342
 C        -4.259201        -0.585710         1.201840
 C        -3.826410        -1.410865         2.349288
 O        -4.941378        -1.056561         0.234763
 H         1.031493        -1.661663         0.595639
 H        -0.115446        -2.518567        -0.552331
 H         0.717033        -1.078607        -1.003485
 H        -3.332615         1.269117        -0.862472
 H        -1.789977         2.459756         1.151101
 H        -3.227702         0.851681         2.148320
 H        -4.579259         1.517183         0.947671
 H        -3.608246        -2.413579         1.997855
 H        -2.959911        -0.843855         2.841214
 H        -4.778905        -1.467841         2.938224
