19
Iteration:  1662charge 0 multiplicity 1
 C         0.415663        -1.279366         0.168751
 C        -0.653146        -0.222518         0.101633
 C        -1.686278         0.350764        -0.100648
 C        -2.886067         1.245559         0.291846
 O        -2.563113         2.589814         0.498386
 C        -3.519563         0.537538         1.450554
 C        -4.272134        -0.803239         1.026599
 C        -4.589919        -1.732333         2.186040
 O        -4.428988        -0.975211        -0.151347
 H         1.176662        -0.970792        -0.671838
 H         1.062054        -1.206199         1.055989
 H         0.106225        -2.308678        -0.041602
 H        -3.413614         1.382347        -0.691254
 H        -1.987121         2.702234         1.296381
 H        -2.705341         0.295294         2.185444
 H        -4.273298         1.168539         1.975972
 H        -5.301866        -2.488395         1.907681
 H        -3.678320        -2.224881         2.506070
 H        -5.079096        -1.143791         2.917716
