19
Iteration:  2496charge 0 multiplicity 1
 C         0.377392        -1.449553        -0.178273
 C        -0.636407        -0.442178         0.275642
 C        -1.702312         0.182348         0.211330
 C        -2.881986         1.130000         0.164964
 O        -2.318711         2.497032         0.228852
 C        -3.956545         0.870707         1.318822
 C        -4.347437        -0.611695         1.174138
 C        -3.705905        -1.529070         2.135182
 O        -5.053032        -0.911217         0.294253
 H         1.097124        -1.633369         0.645927
 H        -0.137237        -2.446135        -0.247033
 H         0.932922        -1.356660        -1.131821
 H        -3.454042         1.048652        -0.795573
 H        -1.687946         2.250734         0.861495
 H        -3.552107         0.919832         2.328761
 H        -4.816748         1.631793         1.234544
 H        -4.466011        -1.891125         2.788323
 H        -3.187725        -2.328567         1.610473
 H        -2.826307        -1.177822         2.624439
