19
Iteration:    78charge 0 multiplicity 1
 C         1.447826         0.266692         0.120759
 C         0.064848        -0.114278        -0.060310
 C        -1.158154        -0.161923         0.031505
 C        -2.585827        -0.105255         0.036484
 O        -3.159853         1.106951        -0.518392
 C        -3.148585        -0.464816         1.490251
 C        -4.692009        -0.246754         1.502203
 C        -5.552520        -1.521948         1.262232
 O        -5.099687         0.846057         1.778594
 H         1.735966         0.462520         1.133924
 H         2.012951        -0.585001        -0.244636
 H         1.756535         1.088177        -0.539026
 H        -2.888926        -0.873770        -0.640090
 H        -2.471664         1.849166        -0.489299
 H        -2.874774        -1.488161         1.606525
 H        -2.615527         0.116025         2.296025
 H        -5.208533        -2.234512         1.971380
 H        -6.593659        -1.338236         1.472025
 H        -5.500348        -1.863225         0.216347
