19
Iteration:  1888
 C         0.503353        -1.130776         0.076701
 C        -0.783891        -0.435175         0.166502
 C        -1.812868         0.170665         0.178432
 C        -2.801953         1.160326         0.236391
 O        -2.199258         2.453439         0.640148
 C        -3.964511         0.773897         1.212551
 C        -4.421234        -0.608986         0.961015
 C        -3.917046        -1.572651         2.059028
 O        -4.944291        -1.110497        -0.025677
 H         1.207082        -0.375840        -0.246849
 H         0.897360        -1.586396         1.029375
 H         0.418950        -2.062879        -0.585811
 H        -3.216179         1.317133        -0.736490
 H        -1.244524         2.273109         0.920492
 H        -3.576920         0.922342         2.234604
 H        -4.892458         1.391605         1.240987
 H        -4.195024        -1.322415         3.097827
 H        -4.200357        -2.626950         1.970724
 H        -2.807784        -1.520716         2.060893
