19
Iteration:  2267charge 0 multiplicity 1
 C         0.798339        -1.083407        -0.062398
 C        -0.520826        -0.432769         0.253209
 C        -1.498942         0.222914         0.454953
 C        -2.773249         0.930762         0.289647
 O        -2.359422         2.343388         0.020850
 C        -3.762619         0.691712         1.324049
 C        -4.481660        -0.556451         1.106999
 C        -3.949262        -1.738125         1.804357
 O        -5.595653        -0.665150         0.519787
 H         1.581160        -0.833885         0.643298
 H         0.597291        -2.133505         0.272801
 H         1.073799        -1.242275        -1.111283
 H        -3.324223         0.713052        -0.692513
 H        -1.573390         2.757567         0.518598
 H        -3.289003         0.687798         2.288041
 H        -4.562496         1.434088         1.356381
 H        -4.688853        -2.507859         1.493875
 H        -3.028732        -2.070594         1.213969
 H        -3.548162        -1.872777         2.835733
