19
Iteration:  3524
 C         0.280556        -1.559179        -0.287397
 C        -0.660217        -0.502003         0.074336
 C        -1.487022         0.417642         0.023970
 C        -2.718055         1.157271         0.139842
 O        -2.544480         2.595617         0.082470
 C        -3.421938         0.694644         1.434618
 C        -4.282262        -0.712031         1.305343
 C        -4.355910        -1.435974         2.593619
 O        -4.868459        -0.971977         0.270113
 H        -0.306400        -2.412690        -0.429125
 H         0.774131        -1.346719        -1.220171
 H         1.005275        -1.687042         0.501698
 H        -3.430797         0.855916        -0.702753
 H        -1.926753         2.661236        -0.645977
 H        -2.783251         0.544332         2.320207
 H        -4.077139         1.511572         1.667067
 H        -3.415752        -1.506666         3.122958
 H        -4.876970        -0.760265         3.216991
 H        -4.889264        -2.368036         2.620394
