19
Iteration:  2491charge 0 multiplicity 1
 C         0.387008        -1.459960        -0.143526
 C        -0.684998        -0.466610         0.272256
 C        -1.691485         0.181723         0.168878
 C        -2.848265         1.154245         0.201156
 O        -2.362624         2.481791         0.224009
 C        -3.935829         0.829713         1.293198
 C        -4.328586        -0.582474         1.198258
 C        -3.688593        -1.523061         2.108321
 O        -5.081420        -0.881923         0.289989
 H         1.172862        -1.516458         0.607440
 H        -0.007491        -2.450092        -0.288173
 H         0.891670        -1.187923        -1.075372
 H        -3.370994         1.024319        -0.733808
 H        -1.505102         2.453733         0.853220
 H        -3.555994         0.826323         2.333643
 H        -4.753959         1.457205         1.140587
 H        -4.441564        -1.854864         2.903442
 H        -3.361976        -2.514580         1.663374
 H        -2.762066        -1.241040         2.698622
