19
Iteration:   662
 C         1.214939        -0.391396        -0.600681
 C        -0.128000        -0.102291        -0.127689
 C        -1.234943         0.159052         0.257498
 C        -2.558778         0.657345         0.532850
 O        -2.579850         2.000135         0.915346
 C        -3.282257        -0.182722         1.570116
 C        -4.595028        -0.682062         1.046518
 C        -5.874271        -0.398271         1.900387
 O        -4.829065        -1.402241         0.051302
 H         1.635385         0.647303        -0.347008
 H         1.846099        -1.185845        -0.141133
 H         1.182284        -0.447775        -1.692818
 H        -3.118314         0.581941        -0.439420
 H        -3.492223         2.087102         1.432999
 H        -2.791313        -1.204169         1.595646
 H        -3.138669         0.365723         2.523378
 H        -6.163945         0.710716         1.809593
 H        -6.600728        -1.060918         1.423986
 H        -5.571811        -0.627992         2.943576
