19
Iteration:  1724charge 0 multiplicity 1
 C         0.454008        -1.318061         0.053876
 C        -0.734114        -0.408948         0.008243
 C        -1.623684         0.400797         0.196432
 C        -2.827694         1.267394         0.359680
 O        -2.521018         2.648272         0.415613
 C        -3.752658         0.663944         1.524683
 C        -4.234222        -0.774323         1.057582
 C        -4.474341        -1.828219         2.158845
 O        -4.447878        -0.952502        -0.171031
 H         1.104336        -0.967833        -0.690611
 H         0.937250        -1.276758         1.034629
 H         0.211689        -2.360760        -0.251225
 H        -3.436725         1.141033        -0.560246
 H        -1.597763         2.849059         0.627478
 H        -3.181477         0.890310         2.401057
 H        -4.749530         1.087427         1.625383
 H        -4.146041        -2.729524         1.570815
 H        -4.030310        -1.570067         3.138398
 H        -5.558471        -2.027624         2.376130
