19
Iteration:  4100
 C         0.714912        -1.305668         0.027183
 C        -0.252299        -0.289774         0.513031
 C        -1.249800         0.346697         0.233985
 C        -2.599352         0.811492         0.061665
 O        -2.656257         2.178840        -0.318342
 C        -3.606125         0.671364         1.266204
 C        -4.504953        -0.487853         1.333251
 C        -4.042113        -1.933413         1.569776
 O        -5.667187        -0.233322         1.159487
 H         0.873246        -0.826474        -0.897947
 H         1.689802        -1.420859         0.564608
 H         0.162400        -2.300417        -0.086746
 H        -3.167207        -0.038359        -0.720095
 H        -3.349358         2.380873        -1.015049
 H        -2.954852         0.947512         2.120855
 H        -4.305287         1.529914         1.017297
 H        -3.237461        -2.256112         0.990484
 H        -3.574155        -2.006433         2.510139
 H        -4.779930        -2.677782         1.540014
