19
Iteration:  2195charge 0 multiplicity 1
 C         0.827060        -1.111166         0.077847
 C        -0.430397        -0.288403         0.094917
 C        -1.554153         0.101164         0.273698
 C        -2.697947         1.017556         0.077308
 O        -2.203780         2.388880         0.353494
 C        -3.866936         0.765612         1.031794
 C        -4.614121        -0.617418         1.050973
 C        -3.841050        -1.762973         1.830734
 O        -5.764682        -0.781604         0.661621
 H         1.522286        -0.703468         0.796611
 H         0.609254        -2.029646         0.660012
 H         1.182843        -1.558983        -0.842081
 H        -3.166050         0.909569        -0.882353
 H        -1.756793         2.203158         1.232794
 H        -3.540945         0.858074         2.113713
 H        -4.568839         1.623569         0.922072
 H        -4.104295        -1.606178         2.860627
 H        -4.089030        -2.752463         1.557418
 H        -2.765737        -1.716585         1.609506
