19
Iteration:  4479
 C         0.223065        -1.518181         0.330430
 C        -0.911729        -0.590373         0.147475
 C        -1.776280         0.168082        -0.293633
 C        -2.923033         1.227032        -0.041208
 O        -2.286588         2.650673         0.154812
 C        -3.556464         0.759646         1.318973
 C        -4.273411        -0.580377         1.258625
 C        -3.504578        -1.667964         2.049796
 O        -5.302196        -0.805504         0.600897
 H         1.162564        -0.858644         0.348174
 H         0.258482        -2.113321         1.290742
 H         0.354406        -2.261835        -0.522598
 H        -3.511583         1.401162        -0.925267
 H        -1.727617         2.733209        -0.611054
 H        -2.775026         0.631345         2.097327
 H        -4.202352         1.626037         1.715959
 H        -2.557114        -2.047130         1.607420
 H        -3.099575        -1.395988         3.064750
 H        -4.113373        -2.611602         2.110219
