19
Iteration:   314charge 0 multiplicity 1
 C         1.380170        -0.533819        -0.034392
 C        -0.070924        -0.189156         0.098956
 C        -1.226828         0.226467         0.112912
 C        -2.663518         0.509995         0.135484
 O        -2.854275         1.922069         0.125292
 C        -3.194004        -0.059153         1.364776
 C        -4.694798        -0.518648         1.219298
 C        -5.106831        -1.875945         1.991090
 O        -5.497550         0.183403         0.613449
 H         2.108004        -0.109210         0.730571
 H         1.404212        -1.644506         0.039548
 H         1.812366        -0.107569        -0.951664
 H        -3.017815         0.019271        -0.772335
 H        -2.478076         2.206454        -0.668638
 H        -2.496345        -0.843533         1.894650
 H        -3.361833         0.756484         2.041587
 H        -4.714945        -1.834877         3.046135
 H        -6.179521        -1.841341         2.214959
 H        -4.827427        -2.792293         1.468079
