19
Iteration:  4957
 C         0.608961        -0.835934        -0.991658
 C        -0.617117        -0.609567        -0.313863
 C        -1.650670        -0.161337         0.056063
 C        -2.761546         0.827665         0.318108
 O        -2.363042         2.240802         0.294054
 C        -3.419451         0.679618         1.643680
 C        -4.340340        -0.546079         1.506532
 C        -5.396207        -0.647029         2.490501
 O        -4.220521        -1.424154         0.608628
 H         1.536837        -0.814136        -0.349799
 H         0.561944        -1.775192        -1.504610
 H         0.648806        -0.070789        -1.714722
 H        -3.425096         0.533306        -0.577008
 H        -1.788920         2.527483        -0.376606
 H        -2.668108         0.581175         2.512649
 H        -4.008792         1.517302         1.909762
 H        -4.844622        -0.639043         3.462466
 H        -6.019667         0.245849         2.593328
 H        -5.984178        -1.513979         2.615269
