19
Iteration:  3922
 C         0.510434        -1.282797         0.439920
 C        -0.573168        -0.520600        -0.228970
 C        -1.573925         0.170049        -0.217830
 C        -2.705525         0.991641        -0.131240
 O        -2.334890         2.360548         0.090036
 C        -3.676861         0.734947         1.169961
 C        -4.424943        -0.554015         1.327093
 C        -3.677287        -1.859701         1.862096
 O        -5.580092        -0.445421         1.102150
 H         1.299745        -1.811680        -0.204955
 H         0.956758        -0.522784         1.080300
 H        -0.060882        -1.926816         1.064830
 H        -3.416180         0.854528        -0.952240
 H        -2.896164         2.868750        -0.465456
 H        -3.048708         0.946140         2.051053
 H        -4.510426         1.445700         1.056092
 H        -3.332935        -2.587906         1.196752
 H        -2.821582        -1.518613         2.443321
 H        -4.366354        -2.344386         2.524655
