19
Iteration:  4860charge 0 multiplicity 1
 C         0.617446        -1.162466        -0.987945
 C        -0.415568        -0.388182        -0.402542
 C        -1.378932         0.291302        -0.042031
 C        -2.648825         0.854692         0.307252
 O        -2.519882         2.367139         0.369377
 C        -3.395955         0.466455         1.550202
 C        -4.339150        -0.678377         1.523247
 C        -5.484310        -0.597880         2.614312
 O        -4.444789        -1.516349         0.577214
 H         1.652337        -1.056118        -0.467167
 H         0.276615        -2.209413        -0.979579
 H         0.775570        -0.827342        -2.029797
 H        -3.278430         0.710876        -0.523733
 H        -1.617420         2.619821         0.410119
 H        -2.728658         0.278129         2.404759
 H        -3.994880         1.269972         1.948705
 H        -5.174856        -0.433376         3.632837
 H        -6.157659         0.273057         2.522855
 H        -6.023304        -1.507500         2.704836
