19
Iteration:    52charge 0 multiplicity 1
 C         1.497735         0.262138         0.070256
 C         0.028269        -0.039541         0.092558
 C        -1.192814        -0.189001        -0.026996
 C        -2.660205        -0.202565         0.006771
 O        -3.061939         1.012691        -0.578624
 C        -3.142526        -0.439604         1.469225
 C        -4.665142        -0.251667         1.651651
 C        -5.444703        -1.341698         1.131198
 O        -5.177505         0.839349         1.888897
 H         1.914222         0.450142         1.093155
 H         2.021303        -0.587101        -0.418577
 H         1.747600         1.071941        -0.609147
 H        -2.955460        -1.032129        -0.692294
 H        -4.031076         1.262525        -0.335808
 H        -2.742464        -1.484748         1.785699
 H        -2.528541         0.210743         2.054002
 H        -5.098228        -2.283517         1.655526
 H        -6.547973        -1.390604         1.269312
 H        -5.283011        -1.225445         0.049002
