19
Iteration:   805charge 0 multiplicity 1
 C         1.439604        -0.232915        -0.238891
 C         0.039530         0.056846         0.067730
 C        -1.130432         0.340370         0.194684
 C        -2.577771         0.476927         0.224128
 O        -2.940021         1.710163         0.926725
 C        -3.249807        -0.699960         1.106657
 C        -4.728785        -0.734763         0.997680
 C        -5.403986         0.041915         2.183186
 O        -5.253829        -1.248107         0.045109
 H         2.026645         0.688183        -0.531705
 H         1.871128        -0.805577         0.636746
 H         1.567564        -0.886047        -1.134289
 H        -2.974304         0.432924        -0.856486
 H        -3.847969         1.884944         0.772072
 H        -2.802534        -1.752137         0.937666
 H        -2.957875        -0.390910         2.107089
 H        -5.095834         1.042834         2.506126
 H        -6.478638         0.046308         2.069425
 H        -5.151122        -0.487567         3.042063
