19
Iteration:   971
 C         1.440841         0.281098         0.437533
 C         0.048865         0.090445         0.149599
 C        -1.116954        -0.030378        -0.142265
 C        -2.575495         0.105930        -0.156953
 O        -3.005883         1.419625         0.496019
 C        -3.190706        -0.918631         0.745978
 C        -4.721432        -0.558237         1.053996
 C        -5.089184        -0.245069         2.495871
 O        -5.673192        -0.522994         0.273544
 H         1.851264         1.174737        -0.011720
 H         1.564148         0.278864         1.553860
 H         2.047579        -0.605804         0.061851
 H        -3.149156         0.120327        -1.066884
 H        -2.245636         1.486601         1.200398
 H        -3.117666        -1.908465         0.263814
 H        -2.651102        -0.900473         1.737712
 H        -4.763867         0.736671         2.784447
 H        -6.129526        -0.325687         2.657659
 H        -4.403607        -0.946732         2.999365
