19
Iteration:  1556
 C         0.691727        -0.964137        -0.139175
 C        -0.506975        -0.288511         0.186836
 C        -1.551298         0.259107         0.312275
 C        -2.752847         1.010069         0.268751
 O        -2.481910         2.399624         0.677233
 C        -3.823889         0.604231         1.293399
 C        -4.339111        -0.737539         0.978830
 C        -4.758466        -1.457166         2.187474
 O        -4.601625        -1.196156        -0.101551
 H         0.865759        -0.426072        -1.097971
 H         1.609651        -0.904606         0.437352
 H         0.629999        -1.975643        -0.450389
 H        -3.037165         1.003639        -0.779683
 H        -1.960781         3.092305         0.127509
 H        -3.458374         0.778558         2.304494
 H        -4.733014         1.209783         1.119673
 H        -5.594320        -0.927044         2.693962
 H        -4.961172        -2.568182         2.022655
 H        -3.797333        -1.479093         2.867203
