19
Iteration:  1255charge 0 multiplicity 1
 C         1.326030        -0.428319        -0.198131
 C         0.023568         0.018234         0.125317
 C        -1.169140         0.247668         0.279356
 C        -2.609393         0.597073         0.294109
 O        -2.683895         1.994151         0.231751
 C        -3.492441         0.126012         1.503721
 C        -4.699477        -0.689399         1.190526
 C        -5.468426        -1.258229         2.295630
 O        -5.097378        -0.886610         0.019616
 H         1.558512         0.049954        -1.130663
 H         2.126756        -0.205394         0.525994
 H         1.353346        -1.510504        -0.452315
 H        -3.212686         0.101878        -0.570581
 H        -2.604408         2.258218        -0.754678
 H        -2.861265        -0.337763         2.265041
 H        -3.892541         1.026241         2.055171
 H        -6.471044        -1.150975         1.902769
 H        -5.190936        -2.357927         2.436806
 H        -5.506148        -0.775541         3.323310
