19
Iteration:  4327
 C         0.891084        -1.296425        -0.030001
 C        -0.363738        -0.512505         0.015346
 C        -1.370617         0.153191         0.207209
 C        -2.599504         0.952067         0.087764
 O        -2.358151         2.353166        -0.088581
 C        -3.853069         0.855705         1.188945
 C        -4.705339        -0.550680         1.351784
 C        -3.924106        -1.689425         1.809086
 O        -5.849819        -0.590477         1.077436
 H         1.830455        -0.820844        -0.297873
 H         1.081514        -1.664380         1.001197
 H         0.845295        -2.165485        -0.700375
 H        -3.069339         0.564469        -0.978984
 H        -1.487240         2.647195         0.064287
 H        -3.454374         0.949291         2.165808
 H        -4.540207         1.688441         0.951660
 H        -3.032084        -1.905019         1.194136
 H        -3.483983        -1.693558         2.843140
 H        -4.571446        -2.546810         1.904005
