19
Iteration:  3229charge 0 multiplicity 1
 C         0.666262        -1.236224        -0.698194
 C        -0.621387        -0.494524        -0.496564
 C        -1.505400         0.232895        -0.138875
 C        -2.650337         1.058109         0.271585
 O        -2.395792         2.469909         0.343434
 C        -3.373028         0.650947         1.628944
 C        -4.358243        -0.613277         1.553485
 C        -5.373069        -1.076725         2.594589
 O        -4.457537        -1.340116         0.484805
 H         0.602836        -1.960955         0.102330
 H         0.740616        -1.771732        -1.653538
 H         1.499339        -0.533455        -0.481524
 H        -3.514685         0.894292        -0.475837
 H        -2.000019         2.680477        -0.515288
 H        -2.648542         0.657612         2.500692
 H        -3.912260         1.602021         1.864410
 H        -4.844969        -1.520660         3.469457
 H        -6.087235        -0.257996         2.778760
 H        -5.848506        -1.950290         2.096126
