19
Iteration:  1609charge 0 multiplicity 1
 C         0.629418        -1.228003         0.008909
 C        -0.467636        -0.253715        -0.035303
 C        -1.487067         0.463830         0.101665
 C        -2.756783         1.164126         0.252726
 O        -2.595468         2.735308         0.711836
 C        -3.646327         0.590447         1.268641
 C        -4.379923        -0.802828         1.012695
 C        -4.676026        -1.646778         2.226573
 O        -4.699322        -1.311434        -0.080444
 H         1.531084        -1.377434        -0.682455
 H         1.080141        -1.110544         1.003299
 H         0.139941        -2.192691         0.024299
 H        -3.060293         1.341284        -0.707128
 H        -1.654595         3.085798         0.799074
 H        -3.108739         0.608405         2.229681
 H        -4.515560         1.305871         1.287268
 H        -5.747921        -1.724912         2.111780
 H        -4.246412        -2.642812         2.042077
 H        -4.557738        -1.331868         3.261219
