19
Iteration:  1444
 C         0.860780        -0.856729        -0.046001
 C        -0.467394        -0.243828         0.110979
 C        -1.505265         0.429555         0.035525
 C        -2.770011         1.047185         0.239747
 O        -2.627000         2.352659         0.446478
 C        -3.497044         0.426127         1.519319
 C        -4.385393        -0.790930         1.022098
 C        -5.144854        -1.421082         2.226106
 O        -4.553752        -1.220498        -0.073359
 H         1.459851        -0.560687        -0.924039
 H         1.379203        -0.558159         0.849638
 H         0.689975        -1.915287        -0.063572
 H        -3.362420         0.932715        -0.623492
 H        -2.039124         2.446534         1.218745
 H        -2.792946        -0.010283         2.232646
 H        -4.173704         1.161274         1.999418
 H        -4.303841        -1.433724         2.979620
 H        -5.859973        -0.617114         2.407228
 H        -5.459691        -2.466892         2.152982
