19
Iteration:  3469charge 0 multiplicity 1
 C         0.380427        -1.292034        -0.064683
 C        -0.885417        -0.607036        -0.424590
 C        -1.819939         0.118301        -0.248755
 C        -2.878584         1.131493         0.167991
 O        -2.271218         2.447767         0.289382
 C        -3.539255         0.739250         1.472389
 C        -4.117030        -0.646446         1.309934
 C        -4.509616        -1.345099         2.671768
 O        -4.564365        -0.918720         0.266049
 H         0.174196        -2.301484         0.130871
 H         1.074258        -1.247280        -0.884652
 H         0.839755        -0.986115         0.874462
 H        -3.680290         1.173742        -0.661323
 H        -1.675136         2.507275        -0.419376
 H        -3.042468         0.920760         2.458548
 H        -4.426802         1.321276         1.593312
 H        -3.632293        -1.540201         3.292137
 H        -5.337993        -0.933145         3.229820
 H        -4.750709        -2.375211         2.387369
