19
Iteration:  4924
 C         0.590249        -0.990544        -1.150016
 C        -0.466800        -0.417504        -0.382549
 C        -1.365787         0.080499         0.243770
 C        -2.634981         0.808255         0.337555
 O        -2.344158         2.234977         0.252969
 C        -3.539536         0.635621         1.663939
 C        -4.410460        -0.626375         1.532785
 C        -5.616715        -0.711572         2.604460
 O        -4.271321        -1.404466         0.618551
 H         1.587460        -0.992738        -0.607996
 H         0.263408        -1.964518        -1.466946
 H         0.727259        -0.404654        -2.030762
 H        -3.237526         0.372978        -0.572633
 H        -1.902499         2.377680        -0.631352
 H        -2.900252         0.705363         2.613514
 H        -4.212821         1.451321         1.611761
 H        -4.985249        -0.569269         3.472909
 H        -6.240143         0.166077         2.542683
 H        -6.161796        -1.616859         2.459048
