19
Iteration:  3980
 C         0.580305        -1.068353         0.376245
 C        -0.725192        -0.436072         0.186418
 C        -1.706766         0.083069        -0.309842
 C        -2.777044         1.001708        -0.162224
 O        -2.083807         2.294988        -0.023393
 C        -3.562848         0.650825         1.146605
 C        -4.513460        -0.605813         1.274099
 C        -3.745639        -1.850096         1.750963
 O        -5.666120        -0.458897         1.255928
 H         1.178286        -1.210843        -0.530287
 H         1.236864        -0.493465         1.093903
 H         0.532445        -2.132577         0.842325
 H        -3.559382         1.007335        -0.862279
 H        -2.534793         2.884552        -0.678878
 H        -2.855893         0.660505         2.008531
 H        -4.356286         1.396162         1.365544
 H        -3.187906        -2.232888         0.808328
 H        -2.910061        -1.698758         2.455964
 H        -4.435200        -2.663435         2.159371
