19
Iteration:   755
 C         1.380922        -0.352774        -0.362016
 C        -0.026757         0.053777        -0.120144
 C        -1.177515         0.332820         0.200540
 C        -2.591668         0.536039         0.384602
 O        -2.873317         1.917043         0.846730
 C        -3.193733        -0.585762         1.294960
 C        -4.746176        -0.729284         1.109997
 C        -5.738876        -0.131831         2.085119
 O        -4.947613        -1.347251         0.032613
 H         1.994932         0.539428        -0.458490
 H         1.850652        -0.984934         0.381477
 H         1.509237        -0.897455        -1.321374
 H        -3.073997         0.429567        -0.595025
 H        -2.620501         1.900135         1.872599
 H        -2.801692        -1.530767         1.044075
 H        -2.940941        -0.326718         2.349760
 H        -5.221018         0.795771         2.434734
 H        -6.637461         0.247555         1.507691
 H        -6.076222        -0.615066         3.111668
