19
Iteration:  3581
 C         0.278777        -1.623326        -0.376094
 C        -0.400999        -0.414703         0.052725
 C        -1.355874         0.375775         0.193139
 C        -2.693359         0.994946         0.155785
 O        -2.622118         2.415336         0.131786
 C        -3.758765         0.880166         1.386547
 C        -4.403982        -0.494992         1.365539
 C        -4.175004        -1.405606         2.555458
 O        -4.899493        -0.946706         0.274041
 H        -0.358249        -2.450224        -0.631961
 H         0.998019        -1.410181        -1.170337
 H         0.888466        -1.996843         0.418270
 H        -3.308671         0.521619        -0.719404
 H        -1.988722         2.634810        -0.651419
 H        -3.283617         1.048963         2.340444
 H        -4.426525         1.662631         1.111843
 H        -3.301198        -1.982299         2.198751
 H        -4.025235        -0.965080         3.556816
 H        -5.012496        -2.112808         2.571999
