19
Iteration:  4855charge 0 multiplicity 1
 C         0.655832        -1.164232        -0.958741
 C        -0.452850        -0.405214        -0.402146
 C        -1.399811         0.266259        -0.046117
 C        -2.715416         0.896094         0.273893
 O        -2.522593         2.368917         0.381232
 C        -3.376634         0.447045         1.629382
 C        -4.340618        -0.704545         1.487566
 C        -5.420345        -0.551959         2.580424
 O        -4.446933        -1.524563         0.570830
 H         1.566465        -1.026857        -0.471161
 H         0.275205        -2.193672        -0.969907
 H         0.733764        -0.825696        -1.995324
 H        -3.374778         0.693474        -0.663600
 H        -1.552686         2.688768         0.443406
 H        -2.637476         0.210247         2.441825
 H        -3.984313         1.340221         1.943476
 H        -4.983402        -0.342992         3.610080
 H        -6.196937         0.236111         2.575222
 H        -5.985271        -1.534343         2.601953
