19
Iteration:  4583charge 0 multiplicity 1
 C         0.338202        -1.517539        -0.292347
 C        -0.834933        -0.632173        -0.059187
 C        -1.660959         0.236048         0.131031
 C        -2.815215         1.070940         0.143534
 O        -2.473091         2.579343         0.033436
 C        -3.594823         0.812043         1.504188
 C        -4.233694        -0.612226         1.273631
 C        -4.123205        -1.409058         2.576200
 O        -4.768108        -0.900821         0.240834
 H         1.286650        -1.043200         0.022714
 H         0.241788        -2.451213         0.296860
 H         0.372905        -1.781763        -1.368058
 H        -3.359667         0.976008        -0.778614
 H        -2.102133         2.764717         0.892129
 H        -2.950769         0.942997         2.374734
 H        -4.438739         1.430634         1.510058
 H        -3.083366        -1.683690         2.942725
 H        -4.634477        -0.849916         3.372269
 H        -4.651338        -2.345528         2.516347
