19
Iteration:   203charge 0 multiplicity 1
 C         1.608691        -0.174492         0.047474
 C         0.112916        -0.072167         0.072796
 C        -1.097892         0.056329        -0.047946
 C        -2.612088         0.144325         0.027892
 O        -3.051551         1.579038        -0.288222
 C        -3.166038        -0.369472         1.378636
 C        -4.735569        -0.388229         1.426458
 C        -5.465036        -1.708794         1.760154
 O        -5.424160         0.588505         1.185188
 H         2.014510         0.267110         1.018372
 H         2.000962        -1.223072        -0.015796
 H         2.035570         0.549925        -0.672195
 H        -3.121167        -0.410035        -0.733270
 H        -3.091675         2.061058         0.569807
 H        -2.768155        -1.465989         1.427427
 H        -2.965809         0.153006         2.283612
 H        -5.149174        -2.229318         2.692123
 H        -6.552833        -1.703704         1.527761
 H        -4.829118        -2.314542         1.086752
