19
Iteration:  4315charge 0 multiplicity 1
 C         0.931526        -1.235756         0.020201
 C        -0.311078        -0.474337        -0.030702
 C        -1.386044         0.095130         0.114164
 C        -2.650335         0.877802         0.088916
 O        -2.354932         2.257914        -0.051146
 C        -3.808938         0.732074         1.261084
 C        -4.742912        -0.422193         1.343529
 C        -3.838219        -1.656403         1.809931
 O        -5.972072        -0.539586         1.057539
 H         1.787270        -0.589048        -0.313187
 H         1.045682        -1.574493         1.073659
 H         0.798504        -2.146014        -0.549493
 H        -3.200424         0.594463        -0.978696
 H        -1.353130         2.336619         0.199846
 H        -3.305974         0.917912         2.188836
 H        -4.430151         1.630178         1.085367
 H        -3.072086        -1.523438         1.015483
 H        -3.404083        -1.321422         2.780987
 H        -4.279027        -2.619607         1.639986
