19
Iteration:  4886charge 0 multiplicity 1
 C         0.664874        -1.212729        -1.145080
 C        -0.255153        -0.285448        -0.461340
 C        -1.204200         0.262771         0.128991
 C        -2.588163         0.857939         0.236808
 O        -2.467843         2.342241         0.306204
 C        -3.525464         0.583134         1.631414
 C        -4.508190        -0.627571         1.564014
 C        -5.637555        -0.758478         2.588450
 O        -4.434919        -1.467345         0.715144
 H         1.643362        -1.368856        -0.760589
 H         0.122971        -2.195598        -1.169510
 H         0.771765        -0.864694        -2.221223
 H        -3.246585         0.672794        -0.656771
 H        -1.590879         2.592937         0.118631
 H        -2.886662         0.566144         2.503207
 H        -4.187486         1.499036         1.893743
 H        -5.279385        -0.746314         3.679519
 H        -6.492323        -0.004237         2.677097
 H        -6.006185        -1.821774         2.602349
