19
Iteration:  2731
 C         0.219836        -1.548564        -0.193134
 C        -0.764079        -0.478840        -0.177795
 C        -1.567919         0.349690         0.115131
 C        -2.749003         1.228401         0.245995
 O        -2.451737         2.625475         0.078312
 C        -3.574244         0.762458         1.484835
 C        -4.208932        -0.645602         1.279465
 C        -4.303024        -1.740333         2.485097
 O        -4.738631        -0.847314         0.255951
 H         0.481674        -1.660585         0.903503
 H        -0.279301        -2.493309        -0.548542
 H         1.149108        -1.381076        -0.793970
 H        -3.423891         1.034037        -0.660175
 H        -1.492527         2.847175         0.333202
 H        -2.968740         0.710712         2.462256
 H        -4.416107         1.429277         1.577986
 H        -3.854067        -1.403629         3.399513
 H        -5.340764        -1.906397         2.457381
 H        -3.710404        -2.550623         2.144025
