19
Iteration:  3566
 C         0.267784        -1.609091        -0.343129
 C        -0.506945        -0.455567        -0.070604
 C        -1.264481         0.447035         0.337411
 C        -2.593955         1.018928         0.177451
 O        -2.660845         2.519206         0.087797
 C        -3.607654         0.831374         1.278094
 C        -4.420293        -0.514894         1.309471
 C        -4.295694        -1.500204         2.577626
 O        -4.907424        -0.990547         0.374106
 H        -0.517172        -2.351248        -0.579769
 H         0.853759        -1.508242        -1.264313
 H         0.912347        -2.086361         0.459661
 H        -2.918485         0.649133        -0.758877
 H        -2.400146         2.848799        -0.738572
 H        -3.070051         1.161996         2.218411
 H        -4.384412         1.646463         1.153303
 H        -3.307631        -1.928065         2.410041
 H        -4.253613        -1.034731         3.529812
 H        -5.040444        -2.271803         2.500940
