19
Iteration:  3091charge 0 multiplicity 1
 C         0.686520        -1.070474        -0.710497
 C        -0.461619        -0.259180        -0.343284
 C        -1.613307         0.031486        -0.111864
 C        -2.761413         0.893581         0.217361
 O        -2.378116         2.253745         0.287682
 C        -3.432696         0.555648         1.569591
 C        -4.283643        -0.630759         1.504463
 C        -5.170948        -0.988619         2.668243
 O        -4.637905        -1.127516         0.373332
 H         0.724615        -1.809255         0.135231
 H         0.629674        -1.735932        -1.591775
 H         1.654184        -0.577020        -0.585626
 H        -3.491691         0.885130        -0.515720
 H        -1.561826         2.235889         0.792707
 H        -2.924828         0.677180         2.509880
 H        -4.273012         1.322445         1.624192
 H        -4.823530        -0.435345         3.579345
 H        -6.235749        -0.738063         2.406852
 H        -5.250991        -2.054027         3.043025
