19
Iteration:  2436charge 0 multiplicity 1
 C         0.438763        -1.346647         0.153720
 C        -0.709074        -0.501039        -0.011655
 C        -1.640412         0.264637         0.031683
 C        -2.785935         1.148443         0.134940
 O        -2.439092         2.593976         0.191799
 C        -3.642249         0.754377         1.371859
 C        -4.331248        -0.641618         1.168707
 C        -3.846611        -1.762887         2.065404
 O        -5.249253        -0.830228         0.412305
 H         0.971750        -1.133170         1.062214
 H         0.076043        -2.360316         0.213876
 H         1.160466        -1.229546        -0.628142
 H        -3.381355         0.959355        -0.727877
 H        -1.467508         2.669866         0.418874
 H        -3.071022         0.735046         2.304438
 H        -4.434690         1.446635         1.410147
 H        -3.339780        -1.499911         3.031316
 H        -4.663604        -2.456893         2.231804
 H        -2.931816        -2.134370         1.547207
