19
Iteration:  3700
 C         0.365106        -1.152875         0.180750
 C        -0.784366        -0.474930        -0.223499
 C        -1.869043         0.067296        -0.332226
 C        -2.915217         1.031998        -0.067557
 O        -2.108486         2.243726         0.210610
 C        -3.585245         0.816820         1.326124
 C        -4.375138        -0.540724         1.336043
 C        -3.832699        -1.439062         2.404802
 O        -5.232583        -0.866918         0.565753
 H         0.313847        -1.990059        -0.508011
 H         1.283495        -0.582415        -0.020137
 H         0.283673        -1.646722         1.165068
 H        -3.575899         1.329547        -0.832606
 H        -1.241840         1.932892         0.163691
 H        -2.718720         0.743256         1.997072
 H        -4.069030         1.786990         1.517052
 H        -2.812519        -1.323267         2.606891
 H        -4.338619        -1.313099         3.301802
 H        -4.000583        -2.484449         2.197016
