19
Iteration:  2652charge 0 multiplicity 1
 C         0.133090        -1.520792         0.042991
 C        -0.901660        -0.531931        -0.248327
 C        -1.733144         0.344077        -0.050209
 C        -2.827105         1.274818         0.107252
 O        -2.289476         2.638820         0.295642
 C        -3.690454         0.839859         1.460237
 C        -4.231926        -0.650568         1.232355
 C        -4.021718        -1.695192         2.388040
 O        -4.704148        -1.019105         0.221590
 H         0.514632        -1.401870         1.083588
 H        -0.152068        -2.596715        -0.140163
 H         1.019673        -1.275133        -0.630014
 H        -3.511098         1.377449        -0.824129
 H        -1.286422         2.551829         0.490710
 H        -3.053759         0.878785         2.428377
 H        -4.472926         1.606570         1.693663
 H        -3.037171        -2.066740         2.698077
 H        -4.380007        -1.073157         3.160090
 H        -4.739576        -2.445928         2.071939
