19
Iteration:   466
 C         1.265588        -0.736275        -0.283400
 C        -0.108720        -0.155373        -0.158140
 C        -1.212735         0.323592         0.138244
 C        -2.676272         0.848812         0.311735
 O        -2.745055         2.219451         0.633059
 C        -3.256583        -0.033673         1.429860
 C        -4.612907        -0.782246         1.129573
 C        -5.512204        -1.239384         2.275291
 O        -5.094981        -0.754354         0.004527
 H         1.862684        -0.128914         0.404308
 H         1.325293        -1.763675         0.045565
 H         1.569916        -0.712975        -1.299858
 H        -3.299989         0.612822        -0.592123
 H        -1.869122         2.497383         0.925086
 H        -2.592581        -0.880418         1.763787
 H        -3.553038         0.613054         2.215803
 H        -5.567855        -0.456339         3.054901
 H        -6.400047        -1.737524         1.882711
 H        -4.950329        -2.002310         2.784122
