19
Iteration:   923charge 0 multiplicity 1
 C         1.405117         0.211663         0.382878
 C        -0.030965         0.057619        -0.027572
 C        -1.232156         0.044841         0.010819
 C        -2.573386         0.253025        -0.077261
 O        -2.689701         1.547920         0.588169
 C        -3.204693        -0.998959         0.770434
 C        -4.795633        -0.710971         1.096552
 C        -5.114343        -0.158659         2.481597
 O        -5.602549        -0.712886         0.178267
 H         1.633981         1.205102        -0.073810
 H         1.589296         0.190407         1.442577
 H         2.102935        -0.425369        -0.096174
 H        -3.139686         0.529674        -0.963550
 H        -3.353125         1.565922         1.291322
 H        -3.385375        -1.891812         0.079577
 H        -2.718712        -1.277176         1.688081
 H        -5.127036         1.021064         2.305644
 H        -6.245629        -0.206742         2.630556
 H        -4.419174        -0.306337         3.286157
