19
Iteration:  3447
 C         0.300449        -1.168251        -0.123695
 C        -0.970455        -0.634587        -0.428854
 C        -1.856083         0.188651        -0.179897
 C        -2.780334         1.189396         0.151122
 O        -2.022139         2.438063         0.282736
 C        -3.574834         0.817698         1.491581
 C        -4.264883        -0.652351         1.317295
 C        -4.558722        -1.383081         2.623833
 O        -4.549662        -1.192161         0.299020
 H         0.359075        -2.127513         0.279429
 H         0.933626        -0.942284        -0.949606
 H         0.621465        -0.511150         0.696974
 H        -3.549098         1.258330        -0.737119
 H        -1.681640         2.628993        -0.684025
 H        -2.940291         0.741724         2.425153
 H        -4.320588         1.465679         1.813726
 H        -3.744265        -1.419422         3.368173
 H        -5.303899        -0.766223         3.138085
 H        -5.021759        -2.380876         2.621754
