19
Iteration:  3287charge 0 multiplicity 1
 C         0.367942        -1.344115        -0.864775
 C        -0.419504        -0.320165        -0.064565
 C        -1.524876         0.106364         0.190129
 C        -2.791320         0.961814         0.316617
 O        -2.621754         2.328045         0.324910
 C        -3.482785         0.671273         1.593267
 C        -4.360669        -0.491224         1.351668
 C        -5.064342        -0.907645         2.524955
 O        -4.190582        -1.285231         0.337727
 H         0.497977        -2.350721        -0.371314
 H         0.012766        -1.491128        -1.934746
 H         1.454410        -0.997497        -0.955773
 H        -3.455095         0.551696        -0.585706
 H        -2.011122         2.623080        -0.415070
 H        -2.738153         0.304603         2.314724
 H        -3.950055         1.676464         1.995205
 H        -4.382176        -1.525544         3.089302
 H        -5.405395        -0.082713         3.143775
 H        -5.968104        -1.336460         2.073809
