19
Iteration:  2774
 C         0.357533        -1.530134        -0.356906
 C        -0.542610        -0.404638        -0.111933
 C        -1.475858         0.290184         0.115948
 C        -2.681260         1.091032         0.245742
 O        -2.494771         2.543999         0.153365
 C        -3.615992         0.728987         1.377943
 C        -4.431594        -0.574627         1.320938
 C        -4.356265        -1.546849         2.542417
 O        -4.876477        -0.885669         0.283293
 H         0.810948        -2.025091         0.533671
 H        -0.184942        -2.272664        -0.998661
 H         1.172705        -1.286999        -1.090897
 H        -3.186774         0.855433        -0.783956
 H        -1.941750         2.827691         0.982472
 H        -2.940284         0.753011         2.333578
 H        -4.326313         1.533693         1.549119
 H        -4.505855        -1.166423         3.573401
 H        -4.978108        -2.408142         2.340197
 H        -3.302437        -1.793088         2.467404
