19
Iteration:  1394
 C         0.907385        -0.984825         0.067608
 C        -0.240205        -0.045827        -0.114226
 C        -1.255382         0.599731        -0.043559
 C        -2.740810         1.007521         0.277653
 O        -2.777218         2.382926         0.611453
 C        -3.364136         0.307769         1.417957
 C        -4.521151        -0.780474         1.070631
 C        -5.266848        -1.315572         2.269074
 O        -4.670738        -1.353344        -0.027412
 H         1.598165        -0.869064        -0.813606
 H         1.405886        -0.757678         1.082439
 H         0.544349        -2.083682         0.070772
 H        -3.348268         0.842521        -0.702413
 H        -2.778801         2.754683        -0.269954
 H        -2.596067        -0.355355         1.925752
 H        -3.742366         1.076337         2.127898
 H        -4.700359        -2.180165         2.546836
 H        -5.448400        -0.504829         3.002626
 H        -6.255889        -1.675795         1.848775
