19
Iteration:  3935charge 0 multiplicity 1
 C         0.461745        -1.178674         0.500879
 C        -0.538846        -0.536394        -0.301464
 C        -1.574641         0.110968        -0.297055
 C        -2.714528         1.075104        -0.083998
 O        -2.232115         2.406681         0.048284
 C        -3.592622         0.740561         1.141550
 C        -4.406428        -0.590935         1.334465
 C        -3.843519        -1.842010         1.866680
 O        -5.626345        -0.596004         1.201513
 H         1.266100        -1.649451        -0.133959
 H         1.022098        -0.497914         1.164419
 H         0.125453        -2.028848         1.133948
 H        -3.229646         1.049847        -0.976873
 H        -2.739074         3.019979        -0.598647
 H        -3.011549         0.975666         2.067490
 H        -4.369618         1.506819         1.066813
 H        -3.522926        -2.441462         0.944862
 H        -2.946833        -1.667018         2.475020
 H        -4.644518        -2.387562         2.451457
