19
Iteration:  2513
 C         0.259563        -1.457245        -0.132100
 C        -0.643483        -0.354476         0.107296
 C        -1.736899         0.191392         0.319552
 C        -2.818426         1.132939         0.222929
 O        -2.263473         2.417202         0.242036
 C        -3.912611         0.975741         1.299283
 C        -4.407806        -0.570211         1.159701
 C        -3.697157        -1.548870         2.173717
 O        -5.024701        -1.039244         0.245735
 H         1.095128        -1.665799         0.533860
 H        -0.311419        -2.341075        -0.404640
 H         0.699925        -1.117754        -1.071922
 H        -3.237121         1.027734        -0.763611
 H        -1.715094         2.620540         0.939764
 H        -3.392328         1.309307         2.233412
 H        -4.757732         1.524403         1.026981
 H        -4.460596        -2.258700         2.674997
 H        -2.979125        -2.284359         1.659306
 H        -3.131531        -1.103756         3.073447
