19
Iteration:  3882
 C         0.489203        -1.430951         0.161950
 C        -0.630229        -0.564772         0.313122
 C        -1.592210         0.124208        -0.020476
 C        -2.765749         1.000045         0.005157
 O        -2.420466         2.455761        -0.173112
 C        -3.599865         0.865378         1.368588
 C        -4.438190        -0.466097         1.321328
 C        -3.584434        -1.650652         1.748827
 O        -5.539490        -0.673908         0.931048
 H         0.704542        -1.820823        -0.826565
 H         1.415825        -1.021190         0.600486
 H         0.412651        -2.371017         0.799012
 H        -3.355567         0.747039        -0.903756
 H        -3.325140         2.932091        -0.256259
 H        -2.872992         0.945093         2.212888
 H        -4.186759         1.795606         1.479210
 H        -3.240947        -2.255141         0.792180
 H        -2.670327        -1.527788         2.382610
 H        -4.361745        -2.260461         2.334800
