19
Iteration:  4951
 C         0.625464        -0.867005        -1.028157
 C        -0.595928        -0.601438        -0.317374
 C        -1.633662        -0.114246         0.144216
 C        -2.753124         0.854551         0.292616
 O        -2.375760         2.195574         0.296062
 C        -3.457727         0.644323         1.659501
 C        -4.329539        -0.566323         1.500396
 C        -5.394281        -0.659074         2.521210
 O        -4.222974        -1.391871         0.616253
 H         1.539916        -0.717426        -0.446811
 H         0.427905        -1.838097        -1.573959
 H         0.683491        -0.017225        -1.818020
 H        -3.330339         0.591874        -0.580121
 H        -1.830134         2.507974        -0.490098
 H        -2.830153         0.492441         2.497408
 H        -4.081880         1.595060         1.823997
 H        -4.905170        -0.445008         3.487388
 H        -5.814481         0.388071         2.429555
 H        -6.057844        -1.563011         2.337236
