19
Iteration:  3646charge 0 multiplicity 1
 C         0.459330        -1.200905        -0.080187
 C        -0.975701        -0.790658        -0.080149
 C        -1.813525         0.097494        -0.154035
 C        -2.858895         1.092442         0.100862
 O        -2.147412         2.387698         0.022592
 C        -3.683744         0.900564         1.443295
 C        -4.335761        -0.497752         1.330218
 C        -4.014873        -1.501469         2.473098
 O        -4.947055        -0.913693         0.436178
 H         0.678878        -2.080759        -0.648583
 H         0.931949        -0.313174        -0.497634
 H         0.687412        -1.206394         0.955863
 H        -3.585523         1.233915        -0.725306
 H        -1.579828         2.525160         0.741129
 H        -3.090269         1.050427         2.332124
 H        -4.453803         1.651300         1.368420
 H        -2.962855        -1.732006         2.453123
 H        -4.120774        -1.343368         3.544720
 H        -4.595994        -2.387128         2.235554
