19
Iteration:  3619
 C         0.430677        -1.390363        -0.254460
 C        -0.804962        -0.602768         0.007874
 C        -1.749914         0.100102         0.219063
 C        -2.810804         1.113646         0.115986
 O        -2.363214         2.456425         0.017899
 C        -3.674747         0.856130         1.350649
 C        -4.293157        -0.520580         1.336839
 C        -4.060590        -1.490709         2.533011
 O        -4.938567        -0.897825         0.305725
 H         0.212555        -2.322396        -0.849698
 H         1.111859        -0.796160        -0.905694
 H         0.904879        -1.475415         0.777841
 H        -3.378798         0.945653        -0.820093
 H        -1.461688         2.643014         0.178582
 H        -2.983183         0.928009         2.244238
 H        -4.415808         1.707022         1.470539
 H        -3.065492        -2.011445         2.467865
 H        -3.975055        -0.875943         3.465469
 H        -4.843562        -2.278947         2.588399
