19
Iteration:   362
 C         1.265426        -0.681061        -0.034896
 C        -0.053575        -0.128938        -0.048484
 C        -1.189481         0.287504        -0.000447
 C        -2.597859         0.647745         0.237257
 O        -2.747404         2.033723         0.219587
 C        -3.217157        -0.047774         1.425562
 C        -4.710808        -0.576356         1.201745
 C        -5.114526        -1.663085         2.112878
 O        -5.511876        -0.170621         0.376876
 H         1.877766        -0.175899         0.704569
 H         1.267930        -1.759773         0.186971
 H         1.835880        -0.353732        -0.933135
 H        -3.069618         0.254668        -0.655509
 H        -2.954221         2.473365         1.115781
 H        -2.728699        -0.879837         1.733355
 H        -3.280408         0.647792         2.310222
 H        -5.241987        -1.384675         3.137432
 H        -6.098448        -2.023690         1.744046
 H        -4.337079        -2.458307         1.892176
