19
Iteration:  1472charge 0 multiplicity 1
 C         0.914210        -0.822795        -0.142235
 C        -0.500538        -0.264957         0.143578
 C        -1.673108         0.139472         0.158663
 C        -2.788702         1.074572         0.316917
 O        -2.447091         2.480108         0.363148
 C        -3.687085         0.482662         1.395095
 C        -4.411715        -0.745356         1.125577
 C        -5.110116        -1.595103         2.247312
 O        -4.445094        -1.112717        -0.053708
 H         1.501962        -0.467132        -0.987359
 H         1.489030        -0.482381         0.768457
 H         0.774390        -1.960322        -0.181766
 H        -3.351705         1.117077        -0.702588
 H        -2.174912         2.667801         1.228548
 H        -3.115615         0.273763         2.331227
 H        -4.496552         1.188740         1.681095
 H        -4.559164        -1.352397         3.151687
 H        -6.161278        -1.296571         2.279190
 H        -4.804098        -2.609454         2.037407
