19
Iteration:  1400
 C         0.913243        -0.999965         0.057754
 C        -0.221518        -0.080756        -0.100455
 C        -1.304257         0.561799        -0.046464
 C        -2.728630         1.060547         0.296381
 O        -2.798525         2.403680         0.603219
 C        -3.369831         0.307848         1.385864
 C        -4.509156        -0.847924         1.072207
 C        -5.293970        -1.317317         2.272725
 O        -4.663650        -1.330102        -0.040616
 H         1.716431        -0.914309        -0.668117
 H         1.377265        -0.668229         0.941344
 H         0.529655        -1.969913         0.053459
 H        -3.330960         0.924616        -0.564803
 H        -2.585691         2.915033        -0.169321
 H        -2.470886        -0.067831         1.871030
 H        -3.652377         1.102650         2.071418
 H        -4.730681        -2.179703         2.775507
 H        -5.390848        -0.521866         3.003214
 H        -6.165058        -1.831490         1.930569
