19
Iteration:  2733charge 0 multiplicity 1
 C         0.227930        -1.550922        -0.192422
 C        -0.750496        -0.483554        -0.200926
 C        -1.554502         0.364283         0.115983
 C        -2.752248         1.224929         0.266456
 O        -2.442694         2.624405         0.071132
 C        -3.593595         0.785503         1.480216
 C        -4.196437        -0.657193         1.277201
 C        -4.315375        -1.740034         2.488504
 O        -4.748448        -0.849652         0.265537
 H         0.496097        -1.700590         0.906985
 H        -0.306057        -2.462223        -0.545976
 H         1.138510        -1.375795        -0.792681
 H        -3.390802         1.014097        -0.605340
 H        -1.556352         2.835664         0.345311
 H        -2.987223         0.692307         2.391776
 H        -4.448909         1.454296         1.598958
 H        -3.857812        -1.414704         3.386765
 H        -5.392283        -1.962096         2.425640
 H        -3.688558        -2.589551         2.180141
