19
Iteration:  1050
 C         1.516120         0.091877         0.288746
 C         0.053726         0.099843         0.220413
 C        -1.158322         0.294938         0.178753
 C        -2.567473         0.238008        -0.094063
 O        -3.042936         1.421758         0.217526
 C        -3.204777        -0.916370         0.846768
 C        -4.762810        -0.639940         1.107239
 C        -5.167605        -0.521346         2.613500
 O        -5.473629        -0.361472         0.154701
 H         2.076187         0.863808        -0.307379
 H         1.731997         0.251759         1.376137
 H         1.828739        -0.940647        -0.004250
 H        -2.967166         0.108259        -1.084262
 H        -3.982761         1.115604         0.529379
 H        -3.004756        -1.892789         0.406453
 H        -2.580314        -0.891923         1.785282
 H        -4.330447        -0.025832         2.959386
 H        -5.999098         0.208368         2.624066
 H        -5.311938        -1.353095         3.320045
