19
Iteration:  2831
 C         0.642116        -1.194553        -0.457980
 C        -0.733001        -0.702804        -0.076658
 C        -1.603371         0.163387        -0.008068
 C        -2.757048         1.090443         0.135717
 O        -2.281636         2.487721         0.243361
 C        -3.562321         0.742530         1.375652
 C        -4.461594        -0.576791         1.306328
 C        -4.522419        -1.467764         2.681562
 O        -4.963304        -0.920621         0.327106
 H         1.031289        -1.754315         0.475945
 H         0.581065        -2.074654        -1.162167
 H         1.360699        -0.394883        -0.766174
 H        -3.357623         1.034282        -0.857296
 H        -1.390864         2.413962         0.535665
 H        -2.823618         0.605810         2.228479
 H        -4.341747         1.488106         1.625914
 H        -5.155877        -0.952748         3.359152
 H        -4.799877        -2.470472         2.392202
 H        -3.493193        -1.435432         3.066866
