19
Iteration:   285charge 0 multiplicity 1
 C         1.456879        -0.423344        -0.002262
 C        -0.018601        -0.263932         0.132805
 C        -1.168858         0.178955         0.012502
 C        -2.620676         0.511165         0.154276
 O        -2.920051         1.867819        -0.138686
 C        -3.174789        -0.167209         1.442033
 C        -4.704392        -0.439792         1.411221
 C        -5.200944        -1.819523         1.860771
 O        -5.523953         0.197018         0.763964
 H         2.010863        -0.013321         0.834618
 H         1.780194        -1.473572        -0.098985
 H         1.800698        -0.013943        -0.993669
 H        -3.040764        -0.015151        -0.717527
 H        -2.665665         2.456932         0.601976
 H        -2.643592        -0.959082         1.822632
 H        -3.202222         0.554078         2.325738
 H        -4.662396        -2.292875         2.669276
 H        -6.281588        -1.633408         2.070633
 H        -5.115750        -2.353343         0.860905
