19
Iteration:  2418charge 0 multiplicity 1
 C         0.419180        -1.376561         0.225909
 C        -0.574186        -0.243235         0.044864
 C        -1.623186         0.304888        -0.182215
 C        -2.851963         1.147532         0.104834
 O        -2.420283         2.450904         0.175923
 C        -3.631070         0.740743         1.408628
 C        -4.408086        -0.683926         1.235091
 C        -3.824042        -1.884814         2.074327
 O        -5.265816        -0.706897         0.405085
 H         1.028137        -1.248198         1.172591
 H        -0.093695        -2.354797         0.216021
 H         1.194446        -1.435930        -0.565090
 H        -3.599886         1.106629        -0.744600
 H        -1.487930         2.389694         0.523942
 H        -2.902354         0.785401         2.234375
 H        -4.394617         1.576440         1.456654
 H        -3.152990        -1.563919         2.899954
 H        -4.643037        -2.400872         2.610333
 H        -3.344254        -2.609223         1.464672
