19
Iteration:  1266charge 0 multiplicity 1
 C         1.313874        -0.490717        -0.216851
 C        -0.018901         0.031360         0.101995
 C        -1.211623         0.189515         0.274919
 C        -2.625385         0.625589         0.425530
 O        -2.708291         2.108221         0.180251
 C        -3.434101         0.192493         1.591731
 C        -4.613425        -0.767294         1.106336
 C        -5.537571        -1.269001         2.243620
 O        -5.060894        -0.910926         0.027034
 H         1.700398        -0.039572        -1.093551
 H         2.100143        -0.253596         0.533076
 H         1.247756        -1.597723        -0.360450
 H        -2.922840         0.183626        -0.595148
 H        -2.950948         2.314449        -0.778271
 H        -2.839064        -0.485233         2.203392
 H        -3.754879         1.093896         2.190345
 H        -6.556636        -1.528983         2.033343
 H        -5.172434        -2.306025         2.661373
 H        -5.292754        -0.502696         3.068561
