19
Iteration:  1784charge 0 multiplicity 1
 C         0.443940        -1.245764        -0.132475
 C        -0.606210        -0.390806         0.230074
 C        -1.505965         0.392920         0.246557
 C        -2.690877         1.207176         0.282228
 O        -2.447050         2.621516         0.614757
 C        -3.883159         0.633178         1.201091
 C        -4.331131        -0.806206         1.009795
 C        -4.323128        -1.633466         2.260123
 O        -4.773641        -1.095765        -0.143321
 H         1.203868        -0.808702        -0.898779
 H         1.077977        -1.738903         0.613136
 H         0.032246        -2.139721        -0.564809
 H        -3.178060         1.219294        -0.734684
 H        -1.959658         2.681343         1.390293
 H        -3.604697         0.908276         2.260008
 H        -4.774506         1.236338         0.935998
 H        -3.341829        -1.884286         2.565039
 H        -4.521207        -1.070847         3.165870
 H        -4.913589        -2.509171         2.060160
