19
Iteration:  1843charge 0 multiplicity 1
 C         0.586314        -1.188913        -0.061685
 C        -0.623494        -0.390470         0.076289
 C        -1.622314         0.267100         0.241955
 C        -2.808937         1.178721         0.270679
 O        -2.284062         2.466527         0.664100
 C        -4.048815         0.771604         1.080793
 C        -4.342822        -0.779247         1.032382
 C        -4.122296        -1.601115         2.232681
 O        -4.891988        -1.010960        -0.041670
 H         1.451176        -0.750415        -0.564465
 H         0.857174        -1.590483         0.959716
 H         0.127157        -2.114603        -0.603248
 H        -3.229330         1.347426        -0.694484
 H        -1.859857         2.230642         1.571934
 H        -4.132911         1.078374         2.148428
 H        -4.801134         1.454976         0.550357
 H        -3.659157        -1.184949         3.154543
 H        -4.973525        -2.203370         2.491234
 H        -3.444857        -2.459253         2.054224
