19
Iteration:  1862charge 0 multiplicity 1
 C         0.551801        -1.229057        -0.023969
 C        -0.575371        -0.290341         0.171134
 C        -1.742397         0.179621         0.140856
 C        -2.793109         1.173037         0.210661
 O        -2.240284         2.388435         0.670334
 C        -4.112645         0.881893         1.173911
 C        -4.439130        -0.658685         1.055258
 C        -4.030976        -1.624602         2.114724
 O        -4.868067        -1.094661        -0.013123
 H         1.325056        -0.516147        -0.398890
 H         0.980366        -1.649579         0.913674
 H         0.337874        -2.150996        -0.593495
 H        -3.125774         1.443037        -0.826144
 H        -1.590650         2.269296         1.407781
 H        -3.784441         1.363445         2.120921
 H        -5.100395         1.403046         0.979244
 H        -3.952624        -1.310833         3.158374
 H        -4.816677        -2.377547         2.228990
 H        -3.112442        -2.172796         1.889368
