19
Iteration:   628charge 0 multiplicity 1
 C         1.205769        -0.460108        -0.653846
 C        -0.078991        -0.051741        -0.114084
 C        -1.212992         0.256724         0.249875
 C        -2.605338         0.647272         0.504921
 O        -2.628782         2.057086         0.947015
 C        -3.349949        -0.240696         1.619127
 C        -4.704477        -0.852112         1.072671
 C        -5.924181        -0.436043         1.997098
 O        -4.686238        -1.306398        -0.044200
 H         1.911003         0.415809        -0.417293
 H         1.784805        -1.342643        -0.306846
 H         1.187156        -0.490149        -1.758389
 H        -3.274064         0.357036        -0.316864
 H        -1.722628         2.312905         0.487584
 H        -2.706483        -1.015264         2.061202
 H        -3.703178         0.460495         2.466508
 H        -6.304791         0.601942         1.707921
 H        -6.711797        -1.224412         2.001074
 H        -5.639639        -0.295141         3.044109
