19
Iteration:    93charge 0 multiplicity 1
 C         1.484293         0.193902         0.103752
 C         0.063484        -0.042398        -0.070743
 C        -1.159828        -0.116355         0.046632
 C        -2.606441        -0.132073         0.015401
 O        -3.100927         1.177066        -0.331976
 C        -3.175852        -0.446852         1.343690
 C        -4.672304        -0.322426         1.456889
 C        -5.588639        -1.482338         1.362774
 O        -5.095561         0.800622         1.706506
 H         1.521106         0.488786         1.180448
 H         2.256780        -0.580837        -0.126132
 H         1.744941         1.109495        -0.499074
 H        -3.025668        -0.867687        -0.772218
 H        -2.703352         1.161689        -1.191951
 H        -2.662471        -1.358054         1.727185
 H        -2.876250         0.374347         2.025272
 H        -5.398869        -2.242449         2.210205
 H        -6.678768        -1.288394         1.486138
 H        -5.458484        -2.052606         0.414812
