19
Iteration:   483
 C         1.178780        -0.670247        -0.327555
 C        -0.160720        -0.174893        -0.085950
 C        -1.201789         0.417460         0.043626
 C        -2.520876         0.731247         0.387069
 O        -2.679524         2.206068         0.719501
 C        -3.270235        -0.051068         1.524748
 C        -4.652636        -0.663017         1.117834
 C        -5.519057        -1.168983         2.221671
 O        -5.100453        -0.930535        -0.026561
 H         1.984092        -0.136191         0.220761
 H         1.252373        -1.741351         0.009675
 H         1.463651        -0.605298        -1.437049
 H        -3.115307         0.666915        -0.523048
 H        -2.181548         2.664565        -0.060541
 H        -2.642991        -0.886978         1.815863
 H        -3.470016         0.610784         2.469674
 H        -5.752436        -0.278073         2.853311
 H        -6.389987        -1.524863         1.646732
 H        -5.186564        -2.043605         2.854151
