19
Iteration:  3547
 C         0.250434        -1.666124        -0.366493
 C        -0.587323        -0.465411        -0.030907
 C        -1.287250         0.472542         0.321339
 C        -2.617045         1.191709         0.169894
 O        -2.614058         2.612331         0.017503
 C        -3.551687         0.691236         1.363246
 C        -4.236698        -0.718746         1.256952
 C        -4.337653        -1.438190         2.583414
 O        -4.963167        -0.965843         0.380796
 H        -0.274753        -2.548826        -0.542941
 H         0.899300        -1.424013        -1.193422
 H         0.885375        -1.658929         0.502348
 H        -3.006965         0.776762        -0.834479
 H        -2.262425         2.798611        -0.877045
 H        -3.170824         0.872321         2.372698
 H        -4.470815         1.243385         1.348826
 H        -3.484111        -1.974111         3.014377
 H        -4.645399        -0.859857         3.423211
 H        -5.096738        -2.175592         2.355781
