19
Iteration:   498charge 0 multiplicity 1
 C         1.157558        -0.674511        -0.393896
 C        -0.113981        -0.127293        -0.047327
 C        -1.209854         0.377609         0.083074
 C        -2.629320         0.790253         0.391331
 O        -2.563745         2.139625         0.744656
 C        -3.326044        -0.079708         1.504340
 C        -4.698232        -0.663809         1.095628
 C        -5.604005        -1.071702         2.249447
 O        -4.925618        -0.971498        -0.077109
 H         1.946128        -0.029685         0.065313
 H         1.320399        -1.707440        -0.114862
 H         1.341261        -0.564956        -1.445073
 H        -3.230745         0.513135        -0.497893
 H        -3.238439         2.587205         0.124108
 H        -2.727076        -0.951088         1.890063
 H        -3.328269         0.540735         2.386851
 H        -5.907921        -0.283494         3.006538
 H        -6.600324        -1.504006         2.057015
 H        -4.921906        -1.722742         2.766804
