19
Iteration:  3228
 C         0.667391        -1.239740        -0.699441
 C        -0.617646        -0.483474        -0.493100
 C        -1.513624         0.230024        -0.142247
 C        -2.656982         1.052408         0.265171
 O        -2.392704         2.466681         0.351172
 C        -3.371876         0.648254         1.626171
 C        -4.374671        -0.609235         1.554547
 C        -5.364881        -1.073319         2.592277
 O        -4.454954        -1.341938         0.483378
 H         0.598516        -1.941341         0.111760
 H         0.769739        -1.763934        -1.640206
 H         1.484255        -0.540081        -0.484598
 H        -3.472990         0.926038        -0.479351
 H        -1.982842         2.689261        -0.538187
 H        -2.633451         0.647308         2.489742
 H        -3.901064         1.574418         1.844137
 H        -4.852082        -1.514558         3.494176
 H        -6.078615        -0.237727         2.796736
 H        -5.831275        -1.964171         2.129319
