19
Iteration:  2454
 C         0.503515        -1.406570         0.056330
 C        -0.841476        -0.701212         0.007050
 C        -1.623873         0.278113         0.219946
 C        -2.788391         1.217741         0.131381
 O        -2.474620         2.593643         0.218859
 C        -3.754552         0.768788         1.287211
 C        -4.339256        -0.553809         1.198732
 C        -3.745408        -1.711227         2.066638
 O        -5.182920        -0.864342         0.383373
 H         0.992737        -1.034536         1.001049
 H         0.568607        -2.558852         0.061830
 H         1.116220        -0.979576        -0.826078
 H        -3.328940         1.138054        -0.899859
 H        -1.499334         2.756125         0.450939
 H        -3.068425         0.844768         2.164624
 H        -4.585538         1.522634         1.542374
 H        -3.924763        -1.365850         3.091842
 H        -4.369670        -2.588417         1.792780
 H        -2.605394        -1.911507         1.886916
