19
Iteration:  4429charge 0 multiplicity 1
 C         0.376562        -1.601717         0.212542
 C        -0.631096        -0.590227        -0.144336
 C        -1.522105         0.165134         0.256185
 C        -2.812736         1.106452         0.146919
 O        -2.479367         2.441001         0.063017
 C        -3.828364         1.004327         1.297057
 C        -4.376941        -0.499478         1.308259
 C        -3.455842        -1.630831         1.768716
 O        -5.424233        -0.693584         0.741863
 H         1.378703        -1.293930         0.234391
 H         0.135863        -1.959535         1.205165
 H         0.297304        -2.512538        -0.408875
 H        -3.297079         0.825961        -0.898580
 H        -1.861523         2.533794        -0.751266
 H        -3.418603         1.380098         2.234756
 H        -4.702845         1.568009         1.132043
 H        -2.524410        -1.664146         1.227166
 H        -2.972618        -1.423968         2.709696
 H        -3.872086        -2.655315         1.818354
