19
Iteration:  3832
 C         0.243429        -1.481864        -0.024841
 C        -0.716111        -0.428254         0.168454
 C        -1.518008         0.353084         0.643076
 C        -2.732681         0.986718         0.206324
 O        -2.396858         2.230592        -0.312365
 C        -3.754323         0.997301         1.306879
 C        -4.261455        -0.486833         1.327987
 C        -3.523618        -1.735940         1.813956
 O        -5.394923        -0.654141         0.754348
 H         0.036952        -1.793769        -1.103873
 H         1.326988        -1.248840        -0.048128
 H         0.184434        -2.393456         0.585475
 H        -3.194918         0.402991        -0.586658
 H        -3.146790         2.674041        -0.591926
 H        -3.291618         1.204895         2.269598
 H        -4.485683         1.817768         1.074914
 H        -2.909580        -1.998853         1.007211
 H        -2.822832        -1.559367         2.575903
 H        -4.163252        -2.578804         1.972874
