19
Iteration:  4225
 C         0.778508        -0.723854         0.227093
 C        -0.623278        -0.600450         0.169103
 C        -1.679876        -0.036339        -0.094793
 C        -2.772879         0.913408         0.068607
 O        -2.141150         2.184622        -0.398796
 C        -3.436878         0.608842         1.472487
 C        -4.502207        -0.514580         1.323498
 C        -4.144209        -1.937950         1.602884
 O        -5.710713        -0.287511         1.160930
 H         1.363875         0.103908        -0.351433
 H         1.049616        -0.658965         1.302529
 H         1.155718        -1.748525         0.087166
 H        -3.667469         0.682524        -0.778657
 H        -1.348208         2.438566         0.232059
 H        -2.691195         0.265482         2.282542
 H        -3.938913         1.487933         1.829792
 H        -3.199003        -2.425220         1.227437
 H        -4.006234        -1.967205         2.715295
 H        -4.824065        -2.841742         1.545758
