19
Iteration:  3901charge 0 multiplicity 1
 C         0.553805        -1.417708         0.350482
 C        -0.601484        -0.521059         0.030813
 C        -1.591795         0.172235        -0.115858
 C        -2.821664         0.984511        -0.098091
 O        -2.432656         2.353939         0.032649
 C        -3.596517         0.744633         1.205224
 C        -4.429123        -0.471955         1.317408
 C        -3.604301        -1.686046         1.833398
 O        -5.569245        -0.501338         0.985814
 H         0.925091        -1.790452        -0.668384
 H         1.399948        -0.892504         0.816981
 H         0.304039        -2.304555         0.938234
 H        -3.480505         0.790457        -0.889513
 H        -3.157972         2.893016        -0.343582
 H        -2.832466         0.832760         1.994769
 H        -4.396676         1.446838         1.419052
 H        -3.267100        -2.239681         0.941617
 H        -2.621406        -1.392377         2.250629
 H        -4.049821        -2.438627         2.489326
