19
Iteration:  1171charge 0 multiplicity 1
 C         1.504006        -0.045884         0.085440
 C         0.050934        -0.049810         0.044206
 C        -1.193213         0.016519         0.053868
 C        -2.708443         0.371370         0.052771
 O        -2.753244         1.866751         0.078981
 C        -3.311191        -0.179200         1.268419
 C        -4.762410        -0.597497         1.252164
 C        -5.574254        -1.175987         2.528308
 O        -5.187675        -0.577302         0.147666
 H         2.021389         0.654250        -0.641974
 H         1.747354         0.342449         1.079501
 H         1.791060        -1.083482         0.016590
 H        -3.246766        -0.001775        -0.768336
 H        -2.496294         2.018189         0.952275
 H        -2.694384        -1.087707         1.392741
 H        -3.050206         0.377983         2.163359
 H        -6.127672        -0.346040         2.945562
 H        -6.328767        -1.790321         2.063412
 H        -4.910547        -1.613447         3.237137
