19
Iteration:  4046
 C         0.829855        -1.254225         0.165114
 C        -0.517992        -0.585619         0.069159
 C        -1.433146         0.212790         0.268015
 C        -2.699286         0.908756         0.185714
 O        -2.405412         2.147786        -0.389847
 C        -3.704482         0.845262         1.490638
 C        -4.526690        -0.447852         1.284810
 C        -3.746885        -1.721206         1.499294
 O        -5.817911        -0.460018         1.121760
 H         1.369309        -1.199664        -0.745728
 H         1.243045        -0.653015         1.005019
 H         0.530015        -2.328269         0.420083
 H        -3.332568         0.386651        -0.585260
 H        -3.004716         2.860389        -0.194581
 H        -3.281115         0.899676         2.515736
 H        -4.320326         1.771409         1.367622
 H        -2.948680        -1.690322         0.705029
 H        -3.110477        -1.703179         2.376812
 H        -4.291519        -2.649017         1.397379
