19
Iteration:  2263charge 0 multiplicity 1
 C         0.780327        -1.082071        -0.073577
 C        -0.494419        -0.474315         0.261527
 C        -1.508925         0.209844         0.452806
 C        -2.728453         0.941555         0.292682
 O        -2.368945         2.371946         0.034982
 C        -3.769691         0.688933         1.291588
 C        -4.520648        -0.537872         1.089689
 C        -3.952568        -1.751694         1.809306
 O        -5.594994        -0.676794         0.537168
 H         1.593236        -0.719864         0.665935
 H         0.653855        -2.118993         0.282283
 H         1.095920        -1.150607        -1.132146
 H        -3.165299         0.698448        -0.687492
 H        -1.640223         2.748900         0.481770
 H        -3.339514         0.656828         2.340000
 H        -4.529486         1.487583         1.294492
 H        -4.643166        -2.557048         1.663651
 H        -3.137179        -2.129182         1.233819
 H        -3.436681        -1.773236         2.733964
