19
Iteration:  1464charge 0 multiplicity 1
 C         0.884465        -0.828034        -0.092270
 C        -0.492040        -0.245000         0.144396
 C        -1.622672         0.206641         0.080008
 C        -2.810614         0.994700         0.329747
 O        -2.467527         2.499822         0.388990
 C        -3.636106         0.449129         1.417178
 C        -4.460062        -0.766007         1.067006
 C        -5.073230        -1.492185         2.241733
 O        -4.450816        -1.136043        -0.059736
 H         1.306817        -0.421280        -1.049665
 H         1.572466        -0.605530         0.780595
 H         0.892692        -1.983866        -0.193792
 H        -3.471386         0.775115        -0.493406
 H        -2.218151         2.752418         1.234533
 H        -2.993271         0.097391         2.254249
 H        -4.395821         1.201810         1.808031
 H        -4.485118        -1.387887         3.203407
 H        -6.148919        -1.328902         2.425012
 H        -5.099636        -2.567567         2.002918
