19
Iteration:  3452charge 0 multiplicity 1
 C         0.320217        -1.184706        -0.102948
 C        -1.001832        -0.618240        -0.435977
 C        -1.841327         0.186932        -0.192927
 C        -2.759003         1.161596         0.169242
 O        -2.063445         2.448877         0.266245
 C        -3.569908         0.761396         1.487776
 C        -4.255098        -0.666568         1.347425
 C        -4.516364        -1.399699         2.606071
 O        -4.549325        -1.118054         0.293518
 H         0.223376        -2.285401         0.250958
 H         1.092209        -0.963637        -0.909044
 H         0.581506        -0.470017         0.696156
 H        -3.524003         1.204468        -0.565987
 H        -1.750298         2.507861        -0.596993
 H        -2.935171         0.861026         2.353530
 H        -4.494400         1.466820         1.658016
 H        -3.804081        -1.311630         3.464126
 H        -5.270649        -0.678997         3.099305
 H        -5.087275        -2.339840         2.546567
