19
Iteration:  3624charge 0 multiplicity 1
 C         0.452728        -1.343283        -0.223834
 C        -0.863797        -0.661467        -0.022866
 C        -1.780851         0.122490         0.200069
 C        -2.806678         1.120468         0.100652
 O        -2.334377         2.453405         0.008263
 C        -3.656869         0.878065         1.342071
 C        -4.348428        -0.532111         1.333773
 C        -4.061186        -1.503649         2.483849
 O        -4.903188        -0.898688         0.372918
 H         0.292544        -2.277431        -0.725322
 H         1.064412        -0.684165        -0.837895
 H         0.911982        -1.513425         0.728451
 H        -3.334742         0.983426        -0.851740
 H        -1.362451         2.500088         0.341535
 H        -2.948553         0.888679         2.159896
 H        -4.421702         1.614263         1.533676
 H        -3.060650        -1.908351         2.440912
 H        -4.044221        -0.980024         3.432733
 H        -4.799754        -2.277436         2.616559
