19
Iteration:  3513
 C         0.267229        -1.547551        -0.257723
 C        -0.661335        -0.457665         0.059697
 C        -1.565372         0.317741        -0.084346
 C        -2.785707         1.134354         0.096517
 O        -2.526220         2.517417         0.149818
 C        -3.425956         0.664413         1.467844
 C        -4.309756        -0.540452         1.301242
 C        -4.372426        -1.389538         2.621249
 O        -4.778058        -0.982360         0.261633
 H        -0.038560        -2.529679        -0.334311
 H         0.850956        -1.267803        -1.109046
 H         1.017351        -1.615350         0.519576
 H        -3.480389         0.883898        -0.784449
 H        -1.863646         2.853578        -0.405425
 H        -2.544457         0.632419         2.138806
 H        -4.115524         1.368333         1.880071
 H        -3.329327        -1.466916         2.901732
 H        -4.995741        -1.022684         3.375672
 H        -4.668170        -2.379110         2.285741
