19
Iteration:   409charge 0 multiplicity 1
 C         1.169310        -0.667686        -0.113536
 C        -0.152705        -0.181692         0.017611
 C        -1.270005         0.258018         0.020740
 C        -2.630042         0.680748         0.234650
 O        -2.718607         2.192426         0.501498
 C        -3.222353        -0.064283         1.401957
 C        -4.603840        -0.633054         1.142061
 C        -5.188440        -1.515454         2.222507
 O        -5.270676        -0.415000         0.141249
 H         1.932984        -0.237146         0.529925
 H         1.100112        -1.721610         0.128192
 H         1.594507        -0.501739        -1.089985
 H        -3.383555         0.551277        -0.554021
 H        -2.845306         2.647877        -0.426670
 H        -2.710122        -0.970973         1.745181
 H        -3.267791         0.549026         2.311812
 H        -5.424327        -0.860639         3.100983
 H        -6.158583        -1.885557         1.906110
 H        -4.514934        -2.330139         2.463898
