19
Iteration:  1635charge 0 multiplicity 1
 C         0.423651        -1.219445         0.127951
 C        -0.569737        -0.180519        -0.091736
 C        -1.476955         0.596798         0.056864
 C        -2.828994         1.140369         0.260184
 O        -2.491952         2.592914         0.567398
 C        -3.612244         0.528150         1.363734
 C        -4.349630        -0.871701         1.057787
 C        -4.660336        -1.733087         2.210605
 O        -4.558327        -1.109191        -0.119424
 H         1.254705        -1.249975        -0.523068
 H         0.911168        -1.041422         1.105757
 H        -0.000147        -2.249134         0.072158
 H        -3.275310         1.230987        -0.739279
 H        -1.759629         2.568837         1.208836
 H        -3.003327         0.542071         2.275251
 H        -4.428494         1.240883         1.483544
 H        -5.699873        -2.139227         2.162895
 H        -3.896507        -2.540427         2.338459
 H        -4.669395        -1.035564         3.114765
