19
Iteration:  1119
 C         1.510562        -0.062625         0.254443
 C         0.054362         0.107889         0.014831
 C        -1.145142         0.273982         0.084141
 C        -2.667263         0.247302        -0.012495
 O        -3.041388         1.597412         0.184064
 C        -3.225312        -0.621990         1.217031
 C        -4.712796        -0.631148         1.155213
 C        -5.356945        -0.873903         2.541815
 O        -5.345379        -0.397294         0.107857
 H         2.131271         0.601703        -0.451875
 H         1.755379         0.294980         1.268929
 H         1.778542        -1.094255         0.069412
 H        -2.974176        -0.260885        -0.979754
 H        -2.473937         2.231708        -0.257165
 H        -2.651631        -1.593455         1.360700
 H        -2.988603        -0.004348         2.086136
 H        -4.788614        -0.046206         3.141811
 H        -6.409592        -0.636012         2.605416
 H        -4.982870        -1.796745         2.920338
