19
Iteration:  1080
 C         1.580176        -0.000886         0.232556
 C         0.087173         0.141865         0.309060
 C        -1.118459         0.250704         0.034248
 C        -2.588379         0.215269        -0.018525
 O        -3.202905         1.542877         0.228740
 C        -3.154503        -0.872443         0.956310
 C        -4.657932        -0.500987         1.183238
 C        -5.240012        -0.619526         2.469140
 O        -5.439009        -0.394073         0.223649
 H         2.089121         0.653590        -0.431590
 H         2.027071         0.155210         1.234079
 H         1.788594        -1.080142         0.001606
 H        -3.075314         0.006443        -0.967737
 H        -3.809941         1.595466        -0.531482
 H        -3.100370        -1.857121         0.510117
 H        -2.593026        -0.940521         1.932791
 H        -4.659771        -0.158137         3.239379
 H        -6.254382        -0.224759         2.532412
 H        -5.335566        -1.718216         2.757191
