19
Iteration:  3780
 C         0.420518        -1.646679        -0.113316
 C        -0.522997        -0.577016         0.229643
 C        -1.407277         0.279253         0.170965
 C        -2.730144         0.990927         0.126717
 O        -2.528843         2.517749        -0.022940
 C        -3.742194         0.891698         1.262227
 C        -4.464914        -0.568581         1.305042
 C        -3.614749        -1.515850         2.129642
 O        -5.450952        -0.733735         0.665864
 H         0.295653        -2.183767        -1.096053
 H         1.455305        -1.291815        -0.164199
 H         0.538416        -2.341896         0.665208
 H        -3.280101         0.704832        -0.813819
 H        -3.007818         2.753311        -0.781447
 H        -3.345635         1.245388         2.189763
 H        -4.448332         1.623335         0.893127
 H        -2.621040        -1.638307         1.667546
 H        -3.405870        -0.958894         3.077383
 H        -4.057739        -2.504189         2.271481
