19
Iteration:  2707charge 0 multiplicity 1
 C         0.221035        -1.553542        -0.119204
 C        -0.830089        -0.574114         0.081135
 C        -1.716996         0.291188        -0.071613
 C        -2.883906         1.173981         0.166344
 O        -2.522817         2.581748         0.243420
 C        -3.448256         0.762203         1.485666
 C        -4.186538        -0.567922         1.259085
 C        -4.185502        -1.567484         2.381274
 O        -4.669067        -0.853718         0.172665
 H         0.807245        -1.844509         0.756865
 H        -0.292959        -2.411016        -0.604549
 H         0.892735        -1.173373        -0.931527
 H        -3.656878         1.068691        -0.676029
 H        -1.586393         2.656761         0.285077
 H        -2.588033         0.507525         2.182962
 H        -4.110511         1.520636         1.928387
 H        -3.388903        -1.212664         3.057360
 H        -5.164356        -1.721091         2.773079
 H        -3.755234        -2.411708         1.882884
