19
Iteration:  1348charge 0 multiplicity 1
 C         1.069287        -0.875692        -0.058408
 C        -0.210296        -0.086427         0.075588
 C        -1.302532         0.411902         0.117268
 C        -2.741777         0.942790         0.263114
 O        -2.858791         2.393709         0.371695
 C        -3.345250         0.113038         1.534399
 C        -4.391555        -0.845722         1.067094
 C        -5.368213        -1.268486         2.329956
 O        -4.681108        -1.089279        -0.081905
 H         1.554656        -0.579951        -1.053460
 H         1.737086        -0.676493         0.829734
 H         0.706775        -1.913277        -0.210064
 H        -3.300667         0.503974        -0.681490
 H        -3.684766         2.766176         0.274562
 H        -2.502427        -0.504565         1.920674
 H        -3.577459         0.816551         2.315958
 H        -5.710197        -2.327818         2.469088
 H        -5.091633        -0.637143         3.176056
 H        -6.267388        -0.833513         1.874568
