19
Iteration:  2510charge 0 multiplicity 1
 C         0.294211        -1.463348        -0.135668
 C        -0.642216        -0.358783         0.141930
 C        -1.710058         0.177755         0.303960
 C        -2.864164         1.122212         0.192741
 O        -2.265867         2.433046         0.242363
 C        -3.924414         0.964455         1.333873
 C        -4.374994        -0.549952         1.171931
 C        -3.685593        -1.565977         2.174443
 O        -5.051287        -1.037188         0.228109
 H         1.140029        -1.699428         0.554403
 H        -0.404912        -2.356045        -0.371274
 H         0.743011        -1.102851        -1.141240
 H        -3.320971         1.002455        -0.866787
 H        -1.622833         2.632622         1.014288
 H        -3.324447         1.376962         2.207165
 H        -4.812675         1.563905         1.088429
 H        -4.406907        -2.200567         2.716951
 H        -3.138608        -2.305360         1.569153
 H        -3.172473        -0.973995         3.013883
