19
Iteration:  1929
 C         0.439477        -1.224702         0.216928
 C        -0.793129        -0.563892         0.128569
 C        -1.707728         0.194667         0.101386
 C        -2.771721         1.204225         0.196981
 O        -2.394140         2.533620         0.591364
 C        -3.888984         0.761974         1.238170
 C        -4.301974        -0.681965         1.038552
 C        -3.836290        -1.718449         2.010075
 O        -4.991446        -0.905806         0.057152
 H         1.166004        -0.420295         0.002482
 H         0.668905        -1.644796         1.223697
 H         0.656282        -2.069523        -0.494916
 H        -3.245960         1.218662        -0.815670
 H        -1.489855         2.736283         0.236654
 H        -3.498283         0.965796         2.267238
 H        -4.704379         1.532637         1.083167
 H        -4.677171        -2.035175         2.630265
 H        -3.690886        -2.500876         1.325938
 H        -2.977811        -1.302640         2.509323
