19
Iteration:  3978
 C         0.586253        -1.078369         0.401255
 C        -0.723890        -0.435697         0.165048
 C        -1.705736         0.099060        -0.318443
 C        -2.749528         1.027573        -0.178489
 O        -2.077448         2.291721        -0.024593
 C        -3.569480         0.655276         1.149308
 C        -4.518807        -0.629349         1.285538
 C        -3.750220        -1.855106         1.758987
 O        -5.678242        -0.468750         1.256731
 H         1.154069        -1.215599        -0.564758
 H         1.211854        -0.467081         1.077061
 H         0.510419        -2.105739         0.811576
 H        -3.618557         1.028932        -0.820879
 H        -2.525199         2.914192        -0.720854
 H        -2.827769         0.666280         1.983502
 H        -4.336668         1.378983         1.418100
 H        -3.255289        -2.207135         0.893288
 H        -2.926076        -1.720393         2.419699
 H        -4.416448        -2.644354         2.160893
