19
Iteration:  1322charge 0 multiplicity 1
 C         1.119237        -0.727705        -0.120231
 C        -0.253249        -0.212166         0.103707
 C        -1.254102         0.433134         0.166567
 C        -2.661472         0.815315         0.298438
 O        -2.862495         2.228078         0.321867
 C        -3.293306         0.174783         1.559542
 C        -4.461724        -0.654702         1.105143
 C        -5.433597        -1.266871         2.229230
 O        -4.729592        -1.054706        -0.032343
 H         1.283854        -0.246049        -1.047430
 H         1.754090        -0.483741         0.704634
 H         1.098024        -1.784334        -0.300049
 H        -3.084240         0.310048        -0.588359
 H        -3.765350         2.414859         0.306596
 H        -2.625914        -0.412493         2.185122
 H        -3.665057         1.060467         2.124922
 H        -5.699540        -2.257113         1.781887
 H        -4.877046        -1.262436         3.181942
 H        -6.347552        -0.675253         2.411065
