19
Iteration:  2626
 C         0.147302        -1.569591        -0.029741
 C        -0.790860        -0.373010        -0.210970
 C        -1.723040         0.348647        -0.080712
 C        -2.773615         1.334223         0.222830
 O        -2.234433         2.602896         0.285742
 C        -3.720047         0.785944         1.322625
 C        -4.293511        -0.610318         1.300634
 C        -4.008997        -1.635893         2.416592
 O        -4.803084        -1.124395         0.230018
 H         0.408650        -1.435382         1.010282
 H        -0.333904        -2.511663        -0.018189
 H         1.071273        -1.601137        -0.525693
 H        -3.395907         1.476175        -0.625763
 H        -1.394941         2.637941         0.846676
 H        -3.599849         1.010806         2.339896
 H        -4.727069         1.348757         1.269834
 H        -3.233862        -2.277753         1.927812
 H        -3.556448        -1.190718         3.387025
 H        -4.952488        -2.278722         2.337338
