19
Iteration:   880
 C         1.535771         0.088861         0.137514
 C         0.116622         0.026079         0.107554
 C        -1.078063         0.132427        -0.067729
 C        -2.545897         0.392235         0.054227
 O        -2.853098         1.497891         0.796051
 C        -3.360981        -0.828162         0.848343
 C        -4.842577        -0.620078         1.004377
 C        -5.256973        -0.080417         2.464119
 O        -5.560529        -0.991579         0.123394
 H         1.982575         1.025507        -0.276105
 H         1.832366        -0.208672         1.155545
 H         1.955398        -0.670312        -0.520140
 H        -2.883046         0.487863        -1.006664
 H        -3.466193         2.164557         0.276970
 H        -3.123107        -1.848798         0.360447
 H        -2.861029        -0.916873         1.808102
 H        -5.224933         1.069425         2.314334
 H        -6.246848        -0.273265         2.944952
 H        -4.459032        -0.120802         3.165186
