19
Iteration:  4596charge 0 multiplicity 1
 C         0.281055        -1.460182        -0.427768
 C        -0.747319        -0.659579         0.151415
 C        -1.626527         0.165730         0.124738
 C        -2.735629         1.162985         0.189378
 O        -2.492567         2.571551         0.029828
 C        -3.619258         0.822917         1.341420
 C        -4.253835        -0.586527         1.323738
 C        -4.245386        -1.459113         2.628777
 O        -4.723111        -0.950410         0.269291
 H         1.308925        -1.072816        -0.270354
 H         0.271866        -2.484010        -0.108814
 H         0.159528        -1.468340        -1.468957
 H        -3.465777         0.796336        -0.626003
 H        -1.841089         2.900633         0.720147
 H        -3.055428         0.892102         2.293953
 H        -4.317039         1.636999         1.419282
 H        -3.172319        -1.479257         2.916831
 H        -4.695704        -0.847943         3.403458
 H        -4.651789        -2.458976         2.455974
