19
Iteration:   553charge 0 multiplicity 1
 C         1.198948        -0.565482        -0.558341
 C        -0.159103        -0.188947        -0.138838
 C        -1.221828         0.366371         0.180336
 C        -2.621155         0.688165         0.517446
 O        -2.696058         2.115033         0.824000
 C        -3.349797        -0.169409         1.670014
 C        -4.606932        -0.684450         1.062804
 C        -5.742645        -0.774082         2.080544
 O        -4.774763        -1.116916        -0.072158
 H         1.993225         0.129123        -0.182512
 H         1.538131        -1.551509        -0.215091
 H         1.353235        -0.518095        -1.622907
 H        -3.307669         0.469843        -0.331275
 H        -1.785709         2.396192         0.384454
 H        -2.789408        -0.993322         2.174770
 H        -3.494118         0.557691         2.458664
 H        -6.159456         0.296933         2.266717
 H        -6.503696        -1.504329         1.697595
 H        -5.548734        -1.151972         3.088181
