19
Iteration:  2676
 C         0.156533        -1.492594         0.001658
 C        -0.934478        -0.600456         0.004422
 C        -1.818608         0.252046        -0.145944
 C        -2.876746         1.181961         0.134061
 O        -2.447692         2.601225         0.351799
 C        -3.472522         0.707165         1.419411
 C        -4.111396        -0.655133         1.187477
 C        -4.081523        -1.550158         2.400280
 O        -4.671941        -0.834543         0.146102
 H         0.770932        -1.680013         0.940866
 H        -0.209937        -2.496181        -0.400671
 H         0.863016        -1.141021        -0.824116
 H        -3.670530         1.308558        -0.671716
 H        -1.431675         2.608578         0.383727
 H        -2.783711         0.883057         2.330704
 H        -4.309702         1.360619         1.650862
 H        -3.107478        -1.255485         2.810523
 H        -4.731718        -1.225316         3.206266
 H        -4.086600        -2.549521         2.090020
