19
Iteration:   167charge 0 multiplicity 1
 C         1.445829        -0.010861         0.059498
 C         0.024828        -0.072632         0.061127
 C        -1.181277         0.032470         0.155419
 C        -2.571449         0.050173        -0.053447
 O        -2.994890         1.449497        -0.219667
 C        -3.168205        -0.456898         1.217231
 C        -4.721603        -0.402719         1.367672
 C        -5.464319        -1.647611         1.685045
 O        -5.227363         0.708697         1.397880
 H         1.664786         0.322388         1.034984
 H         2.002826        -0.903019        -0.159948
 H         1.766795         0.670443        -0.734865
 H        -2.869248        -0.577068        -0.851341
 H        -3.076615         1.475768        -1.164594
 H        -2.771293        -1.374569         1.460675
 H        -2.721331         0.175113         2.045384
 H        -5.585151        -1.856131         2.685484
 H        -6.480536        -1.714129         1.336557
 H        -5.029794        -2.438670         1.128418
