19
Iteration:  3455
 C         0.332099        -1.193946        -0.094048
 C        -1.002538        -0.619935        -0.439941
 C        -1.835249         0.180622        -0.202103
 C        -2.768106         1.155981         0.193043
 O        -2.095610         2.451463         0.266324
 C        -3.575468         0.731518         1.477239
 C        -4.228741        -0.661542         1.386905
 C        -4.507256        -1.395235         2.620538
 O        -4.556105        -1.082460         0.268033
 H         0.203948        -2.251429         0.174579
 H         1.128721        -1.073181        -0.842256
 H         0.617126        -0.521184         0.737886
 H        -3.573195         1.212296        -0.532087
 H        -1.707601         2.495741        -0.672647
 H        -2.896467         0.911129         2.351347
 H        -4.484029         1.435413         1.530628
 H        -3.811410        -1.301812         3.413960
 H        -5.224242        -0.697962         3.027388
 H        -5.056927        -2.309066         2.460736
