19
Iteration:  3197
 C         0.635017        -1.124704        -0.637888
 C        -0.556054        -0.277898        -0.349379
 C        -1.674926         0.139695        -0.211810
 C        -2.811659         0.978353         0.179207
 O        -2.319152         2.218981         0.539677
 C        -3.504386         0.548113         1.465910
 C        -4.433326        -0.688101         1.359451
 C        -5.136485        -0.779335         2.737446
 O        -4.404609        -1.337911         0.363513
 H         0.484472        -1.864491         0.156405
 H         0.525872        -1.647130        -1.619147
 H         1.685036        -0.709470        -0.609983
 H        -3.517328         1.175190        -0.760637
 H        -1.677773         2.476288        -0.110645
 H        -2.652937         0.095085         2.045633
 H        -3.831410         1.483458         2.016432
 H        -4.501491        -0.705809         3.629798
 H        -5.849638         0.005189         2.969579
 H        -5.557877        -1.796923         2.828371
