19
Iteration:  4147charge 0 multiplicity 1
 C         0.934921        -1.195022         0.232664
 C        -0.323498        -0.449738         0.030389
 C        -1.345134         0.221233         0.136251
 C        -2.681717         0.862865         0.047880
 O        -2.708779         2.295754        -0.366093
 C        -3.450030         0.591529         1.472721
 C        -4.575315        -0.496318         1.402591
 C        -4.095741        -1.885884         1.626972
 O        -5.793786        -0.242584         1.130477
 H         1.735629        -0.891247        -0.474375
 H         1.239226        -1.008347         1.277866
 H         0.672172        -2.296760         0.210008
 H        -3.115633         0.343393        -0.979964
 H        -2.012000         2.457056        -1.105622
 H        -2.629367         0.257935         2.159230
 H        -3.919955         1.532841         1.827034
 H        -3.189331        -2.091701         0.970459
 H        -3.754767        -2.094444         2.658709
 H        -4.863848        -2.629286         1.361539
