19
Iteration:  2905
 C         0.713314        -1.048622        -0.385040
 C        -0.649276        -0.493536        -0.297443
 C        -1.744576         0.072793        -0.183300
 C        -2.852435         0.976063         0.172391
 O        -2.285920         2.297254         0.321361
 C        -3.416879         0.583226         1.478244
 C        -4.449790        -0.578327         1.352979
 C        -4.768513        -1.201022         2.702917
 O        -4.831158        -0.956415         0.298241
 H         1.008496        -1.625410         0.480247
 H         0.760239        -1.823316        -1.130997
 H         1.446138        -0.292865        -0.544290
 H        -3.623110         1.037959        -0.614893
 H        -1.368460         2.121771         0.569570
 H        -2.535112         0.191661         2.036372
 H        -3.726613         1.513304         1.895680
 H        -5.072913        -0.417259         3.435850
 H        -5.455717        -2.008796         2.484206
 H        -3.820381        -1.697895         2.886821
