19
Iteration:   943
 C         1.424028         0.292974         0.408950
 C         0.031945         0.087616         0.035805
 C        -1.165641        -0.028085        -0.135506
 C        -2.630957         0.156824        -0.014013
 O        -2.771710         1.551223         0.521051
 C        -3.381043        -1.004771         0.723126
 C        -4.751491        -0.643760         1.072398
 C        -5.072734        -0.155513         2.571624
 O        -5.544585        -0.655471         0.161767
 H         1.981292         1.235561         0.192549
 H         1.351812         0.137286         1.478546
 H         1.986915        -0.575986         0.145916
 H        -3.215835         0.083237        -1.011713
 H        -3.255274         1.510206         1.459336
 H        -3.346975        -1.852325         0.005142
 H        -2.864138        -1.097327         1.679042
 H        -4.893777         0.969199         2.666642
 H        -6.151632        -0.341593         2.900663
 H        -4.275232        -0.707491         3.104415
