19
Iteration:  4229
 C         0.781041        -0.717860         0.225772
 C        -0.666060        -0.627783         0.177559
 C        -1.676571        -0.002571        -0.092162
 C        -2.765188         0.915342         0.096268
 O        -2.105076         2.186230        -0.405789
 C        -3.446233         0.624680         1.473223
 C        -4.538094        -0.489933         1.289511
 C        -4.157061        -1.976273         1.610419
 O        -5.690975        -0.320382         1.173541
 H         1.271024         0.043122        -0.337888
 H         1.135463        -0.587241         1.264212
 H         1.255302        -1.652934        -0.055154
 H        -3.554805         0.708302        -0.603534
 H        -1.368291         2.406868         0.147431
 H        -2.633981         0.425070         2.098470
 H        -4.011034         1.528029         1.751296
 H        -3.214008        -2.454427         1.316679
 H        -3.946174        -1.995167         2.744278
 H        -4.884469        -2.785539         1.537989
