19
Iteration:  3601
 C         0.401938        -1.540308        -0.321626
 C        -0.550113        -0.455387         0.071942
 C        -1.605998         0.171486         0.156340
 C        -2.803148         1.027891         0.231753
 O        -2.511877         2.467663         0.052124
 C        -3.725767         0.856186         1.405908
 C        -4.289870        -0.576130         1.285312
 C        -4.093743        -1.390858         2.517552
 O        -4.928426        -0.861909         0.276004
 H        -0.273042        -2.255096        -0.729164
 H         1.039112        -1.195795        -1.135407
 H         0.980593        -1.981204         0.490213
 H        -3.365048         0.733746        -0.642636
 H        -1.588848         2.421163        -0.178055
 H        -3.306974         1.054157         2.396296
 H        -4.650988         1.400511         1.263390
 H        -3.192878        -1.993583         2.503768
 H        -3.952729        -0.779722         3.346323
 H        -4.921337        -2.016020         2.775831
