19
Iteration:   804
 C         1.424249        -0.239546        -0.239222
 C         0.044116         0.053656         0.063359
 C        -1.123583         0.340035         0.190370
 C        -2.575472         0.468957         0.229796
 O        -2.943930         1.710842         0.932512
 C        -3.242750        -0.687455         1.112393
 C        -4.716844        -0.734322         0.991315
 C        -5.410338         0.038309         2.176708
 O        -5.256242        -1.250401         0.047613
 H         1.992114         0.713938        -0.517109
 H         1.892660        -0.794568         0.626221
 H         1.554788        -0.872767        -1.133281
 H        -2.972124         0.463219        -0.846112
 H        -3.814810         1.919527         0.717949
 H        -2.784520        -1.741571         0.925922
 H        -2.967723        -0.377938         2.128151
 H        -5.114092         1.043829         2.525573
 H        -6.483865         0.046694         2.057101
 H        -5.176372        -0.497065         3.057250
