19
Iteration:  4121charge 0 multiplicity 1
 C         0.813931        -1.240358         0.054975
 C        -0.355816        -0.390310         0.387866
 C        -1.293504         0.395647         0.249636
 C        -2.653707         0.867376         0.067479
 O        -2.648177         2.245080        -0.382057
 C        -3.469754         0.639227         1.309737
 C        -4.497730        -0.526337         1.282063
 C        -4.113456        -1.970288         1.626624
 O        -5.720810        -0.262164         1.194398
 H         1.328077        -0.999105        -0.854495
 H         1.440400        -1.203844         0.963577
 H         0.375835        -2.258153         0.050760
 H        -2.972817         0.292350        -0.849336
 H        -2.757796         2.277769        -1.392997
 H        -2.745262         0.473744         2.150104
 H        -4.082043         1.553874         1.541442
 H        -3.342568        -2.372152         1.053272
 H        -3.783925        -2.039500         2.635489
 H        -5.018641        -2.535262         1.501305
