19
Iteration:  3262charge 0 multiplicity 1
 C         0.503201        -1.267977        -0.807497
 C        -0.637279        -0.538652        -0.327396
 C        -1.443334         0.242539         0.142159
 C        -2.712348         0.993497         0.347834
 O        -2.565562         2.422449         0.225915
 C        -3.412276         0.600738         1.677509
 C        -4.338342        -0.640927         1.474824
 C        -5.286121        -1.012082         2.548478
 O        -4.203961        -1.162738         0.380944
 H         0.635551        -2.142100        -0.190402
 H         0.478038        -1.666976        -1.831099
 H         1.497999        -0.742855        -0.670994
 H        -3.396901         0.542602        -0.377566
 H        -2.021779         2.631686        -0.638300
 H        -2.709948         0.478222         2.569526
 H        -3.993195         1.532896         1.849055
 H        -4.638820        -1.531517         3.290853
 H        -5.690353        -0.113735         3.067060
 H        -6.178067        -1.494434         2.068809
