19
Iteration:    24charge 0 multiplicity 1
 C         1.466140         0.183914         0.018646
 C         0.004326         0.102268         0.147852
 C        -1.170946        -0.250771         0.019573
 C        -2.607811        -0.299399         0.082438
 O        -3.251472         0.899857        -0.545180
 C        -3.109031        -0.222145         1.502457
 C        -4.618157        -0.143201         1.474149
 C        -5.468352        -1.332637         0.930095
 O        -5.083850         0.742133         2.111784
 H         1.896576         0.325037         1.001964
 H         1.942621        -0.672663        -0.474029
 H         1.740789         1.096397        -0.563155
 H        -2.915506        -1.194660        -0.491139
 H        -2.939205         0.999582        -1.564684
 H        -2.782309        -1.019918         2.113517
 H        -2.647880         0.721411         1.901956
 H        -5.140868        -2.291385         1.282685
 H        -6.435698        -1.152347         1.362770
 H        -5.600554        -1.344891        -0.172819
