19
Iteration:  3431charge 0 multiplicity 1
 C         0.447487        -1.151661        -0.184720
 C        -0.982936        -0.615461        -0.313324
 C        -1.973307         0.153798        -0.195161
 C        -2.856046         1.275723         0.117801
 O        -1.969112         2.408808         0.370730
 C        -3.558797         0.802493         1.391046
 C        -4.345556        -0.648119         1.289535
 C        -4.628925        -1.292615         2.680943
 O        -4.505092        -1.305582         0.319895
 H         0.236068        -2.270800         0.021474
 H         1.036359        -1.151242        -1.159728
 H         1.051350        -0.536247         0.512597
 H        -3.616124         1.530905        -0.565895
 H        -1.721426         2.709621        -0.575510
 H        -2.666666         0.700419         2.013384
 H        -4.247946         1.664178         1.826943
 H        -3.670334        -1.332530         3.231833
 H        -5.282277        -0.874142         3.472126
 H        -5.013176        -2.214357         2.244901
