19
Iteration:  1380
 C         0.858939        -0.913953         0.040293
 C        -0.279935        -0.021698        -0.063982
 C        -1.270242         0.616486         0.015574
 C        -2.617445         0.902283         0.189543
 O        -2.753357         2.361280         0.550946
 C        -3.424921         0.122004         1.458272
 C        -4.494372        -0.691582         1.065891
 C        -5.280970        -1.240531         2.216717
 O        -4.647402        -1.301917         0.024321
 H         1.642873        -0.860329        -0.753011
 H         1.470740        -0.736005         0.898651
 H         0.422096        -1.862529        -0.021644
 H        -3.244743         0.587185        -0.691602
 H        -3.186592         3.062001        -0.082157
 H        -2.799450        -0.516597         2.119602
 H        -3.732969         0.882239         2.146373
 H        -4.857617        -2.271477         2.477573
 H        -5.183846        -0.787746         3.210167
 H        -6.270157        -1.540000         1.926489
