19
Iteration:   259charge 0 multiplicity 1
 C         1.396338        -0.373853         0.034575
 C         0.027253        -0.032992        -0.012363
 C        -1.173388         0.051494         0.129321
 C        -2.611636         0.371302         0.066597
 O        -2.826524         1.756020        -0.107283
 C        -3.266476        -0.179145         1.444881
 C        -4.726936        -0.432918         1.370114
 C        -5.205425        -1.863405         1.795423
 O        -5.463792         0.413016         0.890876
 H         1.808828         0.037796         1.013899
 H         1.673567        -1.453030        -0.036074
 H         1.941107        -0.002347        -0.846330
 H        -2.917741        -0.227737        -0.774261
 H        -3.747971         1.845204        -0.233745
 H        -2.770491        -1.197702         1.761353
 H        -3.115548         0.401000         2.320872
 H        -4.392602        -2.052760         2.553254
 H        -6.161105        -1.732886         2.300136
 H        -5.241950        -2.588179         0.981758
