19
Iteration:  1057charge 0 multiplicity 1
 C         1.484275         0.043203         0.294618
 C         0.073250         0.099598         0.246455
 C        -1.091052         0.379865         0.123383
 C        -2.527256         0.205617        -0.115079
 O        -3.078327         1.436119         0.232164
 C        -3.211263        -0.912449         0.847837
 C        -4.760681        -0.670839         1.092760
 C        -5.190370        -0.537703         2.641447
 O        -5.458514        -0.348067         0.156772
 H         1.812476         0.824157        -0.355513
 H         1.954073         0.294202         1.258822
 H         1.897591        -0.926313        -0.071241
 H        -2.881061        -0.082265        -1.151918
 H        -4.030879         1.367499         0.395999
 H        -2.930631        -1.908790         0.496196
 H        -2.865295        -0.882002         1.898735
 H        -4.419762         0.084854         3.198451
 H        -6.066426         0.097234         2.712332
 H        -5.498590        -1.392520         3.314467
