19
Iteration:  2818
 C         0.512554        -1.267010        -0.423054
 C        -0.704767        -0.665829        -0.003017
 C        -1.578036         0.135363         0.000667
 C        -2.651348         1.075657         0.148168
 O        -2.406260         2.480472         0.269625
 C        -3.533806         0.642183         1.392933
 C        -4.333515        -0.610732         1.305875
 C        -4.404113        -1.344788         2.614067
 O        -5.038857        -0.897355         0.236121
 H         1.231711        -1.657361         0.331537
 H         0.388972        -1.916515        -1.311685
 H         1.008974        -0.361639        -0.825051
 H        -3.416471         0.989709        -0.695531
 H        -1.462158         2.638366         0.649872
 H        -2.967863         0.765783         2.390613
 H        -4.160231         1.516145         1.417502
 H        -5.182352        -0.895056         3.268833
 H        -4.800066        -2.349918         2.593786
 H        -3.482483        -1.456350         3.163629
