19
Iteration:  4535
 C         0.202177        -1.526847         0.196124
 C        -0.780934        -0.484687        -0.243305
 C        -1.761629         0.213396        -0.324810
 C        -2.825147         1.209533         0.023588
 O        -2.425939         2.559848         0.139517
 C        -3.544612         0.796048         1.397335
 C        -4.223712        -0.600904         1.412771
 C        -3.912881        -1.663206         2.402637
 O        -4.942682        -0.817675         0.409018
 H         1.108469        -0.980194         0.516093
 H        -0.230672        -2.058083         1.095141
 H         0.491951        -2.234452        -0.674714
 H        -3.565741         1.309312        -0.742042
 H        -1.488520         2.469458         0.558116
 H        -2.868376         0.883935         2.246018
 H        -4.400362         1.539300         1.425167
 H        -2.888421        -1.952564         2.119782
 H        -3.906879        -1.312947         3.463474
 H        -4.476092        -2.659044         2.338477
