19
Iteration:  2032charge 0 multiplicity 1
 C         0.382989        -1.525389         0.295850
 C        -0.646472        -0.475064         0.348428
 C        -1.398280         0.445840         0.203310
 C        -2.708737         1.206671         0.179817
 O        -2.791995         2.613995         0.216549
 C        -3.637669         0.710053         1.383021
 C        -4.271454        -0.654437         1.042536
 C        -3.636361        -1.961952         1.656258
 O        -5.293274        -0.664221         0.326207
 H         1.393262        -1.096864         0.510762
 H         0.259399        -2.225713         1.154563
 H         0.257244        -2.139718        -0.613421
 H        -3.161640         0.777502        -0.743078
 H        -2.021852         3.050807        -0.066666
 H        -3.170823         0.949726         2.357944
 H        -4.525406         1.376449         1.339092
 H        -3.715326        -2.719859         0.937556
 H        -2.817888        -1.763695         2.277124
 H        -4.436931        -2.144486         2.365367
