19
Iteration:  1553charge 0 multiplicity 1
 C         0.719271        -0.945009        -0.163826
 C        -0.488310        -0.292907         0.187285
 C        -1.593253         0.217964         0.333555
 C        -2.739062         1.056459         0.267697
 O        -2.479994         2.399969         0.659906
 C        -3.831697         0.618046         1.300258
 C        -4.356141        -0.736758         0.997558
 C        -4.755133        -1.466257         2.219168
 O        -4.586640        -1.194952        -0.123171
 H         0.942824        -0.423987        -1.164989
 H         1.610486        -0.944979         0.482414
 H         0.655339        -2.025577        -0.393551
 H        -3.061130         0.960626        -0.739828
 H        -1.958794         2.932098         0.114838
 H        -3.537697         0.766303         2.361721
 H        -4.805177         1.192963         1.192920
 H        -5.620468        -0.923699         2.672920
 H        -5.062168        -2.479331         1.948931
 H        -3.826950        -1.579046         2.752457
