19
Iteration:  4130
 C         0.836459        -1.253285         0.141608
 C        -0.354987        -0.400536         0.250961
 C        -1.311442         0.353640         0.280153
 C        -2.656347         0.909489         0.019416
 O        -2.661211         2.292923        -0.397031
 C        -3.467879         0.596564         1.342878
 C        -4.533091        -0.501821         1.331302
 C        -4.137898        -1.945541         1.619138
 O        -5.722829        -0.284526         1.184865
 H         1.405751        -0.892686        -0.736839
 H         1.591689        -1.181360         0.931517
 H         0.646804        -2.303419         0.004054
 H        -3.143029         0.291542        -0.576680
 H        -2.517657         2.250030        -1.397475
 H        -2.665261         0.299705         2.010964
 H        -3.887126         1.538398         1.666733
 H        -3.313014        -2.313105         1.029390
 H        -3.801084        -2.036040         2.674839
 H        -4.979719        -2.671848         1.497320
