19
Iteration:   312
 C         1.381470        -0.522208        -0.033588
 C        -0.073056        -0.203313         0.109590
 C        -1.217333         0.232838         0.104337
 C        -2.655327         0.493871         0.131730
 O        -2.868835         1.920592         0.112881
 C        -3.187372        -0.044596         1.377105
 C        -4.693684        -0.529782         1.214944
 C        -5.116573        -1.881043         1.983458
 O        -5.500955         0.185598         0.629030
 H         2.082478        -0.112788         0.733001
 H         1.451395        -1.620407         0.009646
 H         1.802325        -0.125767        -0.955949
 H        -3.034580        -0.015230        -0.809988
 H        -2.369101         2.308824        -0.640438
 H        -2.519877        -0.861878         1.901055
 H        -3.294112         0.759209         2.103438
 H        -4.707355        -1.826578         3.025852
 H        -6.176852        -1.775158         2.191777
 H        -4.877568        -2.766266         1.440731
