19
Iteration:   730
 C         1.271222        -0.390241        -0.413504
 C        -0.052112         0.170376        -0.159543
 C        -1.222806         0.230171         0.181907
 C        -2.581249         0.520219         0.420902
 O        -2.666402         1.914412         0.939142
 C        -3.226872        -0.421540         1.486495
 C        -4.667840        -0.685840         1.020377
 C        -5.694502        -0.188798         1.935149
 O        -4.987217        -1.391983         0.081060
 H         1.957603         0.461020        -0.420162
 H         1.740992        -1.107194         0.292396
 H         1.345343        -0.854286        -1.415089
 H        -3.150846         0.315017        -0.516191
 H        -3.616483         2.077191         1.000133
 H        -2.643671        -1.387154         1.553983
 H        -3.311205         0.084789         2.409848
 H        -5.584383         0.627338         2.692515
 H        -6.600523        -0.131967         1.306816
 H        -5.852105        -1.102387         2.632081
