19
Iteration:  3326
 C         0.427454        -1.379880        -0.809805
 C        -0.581935        -0.488558        -0.177407
 C        -1.338753         0.464055         0.172439
 C        -2.650612         1.107129         0.231183
 O        -2.392722         2.543360         0.315328
 C        -3.628495         0.698992         1.377938
 C        -4.284739        -0.706206         1.441887
 C        -5.099400        -1.122364         2.692304
 O        -4.450990        -1.413686         0.388375
 H         0.325494        -2.304372        -0.277818
 H         0.176307        -1.491257        -1.840154
 H         1.435371        -1.017575        -0.634411
 H        -3.292717         0.870259        -0.627761
 H        -1.700372         2.708393        -0.366969
 H        -3.232518         0.779300         2.415421
 H        -4.421756         1.366847         1.397803
 H        -4.689101        -1.877667         3.422799
 H        -5.392159        -0.187135         3.207505
 H        -6.074367        -1.624830         2.421072
