19
Iteration:  1061charge 0 multiplicity 1
 C         1.489360         0.023699         0.298271
 C         0.076737         0.103595         0.262718
 C        -1.073690         0.394834         0.083547
 C        -2.529278         0.164794        -0.113138
 O        -3.104750         1.475152         0.247275
 C        -3.214213        -0.908599         0.860408
 C        -4.730439        -0.692020         1.102788
 C        -5.198781        -0.525854         2.648688
 O        -5.464257        -0.341026         0.156583
 H         1.753066         0.815489        -0.453793
 H         2.023676         0.261065         1.235473
 H         1.941623        -0.910598        -0.087863
 H        -2.638262        -0.198661        -1.134092
 H        -4.115961         1.509176         0.282829
 H        -2.990219        -1.915440         0.501803
 H        -2.868713        -0.829836         1.911221
 H        -4.510798        -0.006503         3.228310
 H        -6.150778         0.044346         2.672964
 H        -5.471469        -1.466175         3.161277
