19
Iteration:  3068charge 0 multiplicity 1
 C         0.680822        -1.063865        -0.779923
 C        -0.508387        -0.506603        -0.126842
 C        -1.551264         0.119966         0.019257
 C        -2.790146         0.855418         0.260784
 O        -2.533800         2.330827         0.177712
 C        -3.357162         0.512269         1.639619
 C        -4.419730        -0.546289         1.399457
 C        -5.144288        -0.970449         2.661468
 O        -4.516737        -1.077554         0.302230
 H         1.019839        -1.955442        -0.221203
 H         0.351214        -1.546078        -1.732828
 H         1.557767        -0.386510        -0.808936
 H        -3.454876         0.681929        -0.520437
 H        -1.629604         2.435584         0.648598
 H        -2.547063         0.080196         2.171395
 H        -3.739970         1.403939         2.224814
 H        -4.713703        -0.407505         3.534546
 H        -6.246137        -0.942666         2.692590
 H        -4.970618        -2.045261         2.949598
