19
Iteration:  1260charge 0 multiplicity 1
 C         1.293810        -0.457173        -0.182594
 C         0.020778         0.023878         0.108459
 C        -1.164374         0.222233         0.264579
 C        -2.640399         0.598127         0.374637
 O        -2.689342         2.032250         0.196842
 C        -3.483954         0.163622         1.534961
 C        -4.645497        -0.725602         1.164793
 C        -5.483573        -1.258863         2.268763
 O        -5.093199        -0.897512         0.025330
 H         1.650129         0.067441        -1.144532
 H         2.166009        -0.207797         0.427020
 H         1.312696        -1.506968        -0.440890
 H        -3.002927         0.221628        -0.570731
 H        -2.744513         2.331572        -0.667958
 H        -2.819775        -0.401133         2.226495
 H        -3.797939         1.024745         2.101394
 H        -6.579011        -1.352489         1.976005
 H        -5.263924        -2.270561         2.486278
 H        -5.435036        -0.682088         3.157974
