19
Iteration:   639
 C         1.226682        -0.382045        -0.656740
 C        -0.092280        -0.108066        -0.104457
 C        -1.224586         0.196555         0.255261
 C        -2.607170         0.617610         0.527726
 O        -2.594645         2.075198         0.972595
 C        -3.394786        -0.273441         1.600048
 C        -4.635167        -0.861639         1.114498
 C        -5.883282        -0.392768         1.952976
 O        -4.734984        -1.322202        -0.032825
 H         1.978012         0.455153        -0.439853
 H         1.539339        -1.339665        -0.171246
 H         1.118685        -0.569413        -1.736023
 H        -3.053636         0.750325        -0.460490
 H        -2.608333         2.609529         0.167292
 H        -2.722480        -1.039107         2.031707
 H        -3.523452         0.545811         2.394298
 H        -6.250448         0.643222         1.648858
 H        -6.717579        -1.117283         1.863061
 H        -5.417655        -0.395180         2.923344
