19
Iteration:  4408
 C         0.441442        -1.639856         0.084389
 C        -0.566079        -0.535280         0.207169
 C        -1.515644         0.260954         0.149756
 C        -2.696962         1.040602         0.157887
 O        -2.467349         2.510266        -0.028226
 C        -3.782691         0.878692         1.283553
 C        -4.476583        -0.515197         1.251554
 C        -3.541882        -1.534029         1.770514
 O        -5.548717        -0.751190         0.824584
 H         1.373063        -1.156041        -0.115157
 H         0.565690        -2.309542         0.934262
 H         0.257549        -2.281101        -0.785717
 H        -3.343809         0.706756        -0.817381
 H        -1.655619         2.531795        -0.501760
 H        -3.311884         0.944060         2.306181
 H        -4.509154         1.680786         1.225454
 H        -2.624275        -1.732204         1.177843
 H        -3.055033        -1.292196         2.698487
 H        -4.084675        -2.505473         1.807128
