19
Iteration:  3042charge 0 multiplicity 1
 C         0.649693        -1.126673        -0.767933
 C        -0.577683        -0.664440        -0.154669
 C        -1.378208         0.247864         0.120134
 C        -2.582620         0.953204         0.380528
 O        -2.652671         2.456491         0.031131
 C        -3.302406         0.469509         1.637397
 C        -4.410909        -0.552206         1.391226
 C        -5.183774        -1.043375         2.629936
 O        -4.623619        -1.105708         0.374351
 H         1.285664        -1.956886        -0.372273
 H         0.303024        -1.520568        -1.737169
 H         1.294809        -0.186495        -0.800965
 H        -3.196759         0.629934        -0.560505
 H        -1.789103         2.912151         0.311946
 H        -2.453010        -0.033885         2.163306
 H        -3.632399         1.214671         2.376490
 H        -4.980717        -0.747498         3.634406
 H        -6.228203        -1.059642         2.355068
 H        -5.018418        -2.092411         2.809839
