19
Iteration:   551
 C         1.200417        -0.557754        -0.553172
 C        -0.168059        -0.190379        -0.132778
 C        -1.235564         0.353258         0.190784
 C        -2.629426         0.693950         0.512732
 O        -2.698093         2.116095         0.813780
 C        -3.316973        -0.158530         1.655801
 C        -4.598646        -0.689257         1.050811
 C        -5.722972        -0.774807         2.084638
 O        -4.786429        -1.112894        -0.073388
 H         2.034546         0.115046        -0.183043
 H         1.467519        -1.580180        -0.195652
 H         1.357187        -0.540536        -1.654205
 H        -3.310455         0.410682        -0.309243
 H        -1.805008         2.364594         0.554612
 H        -2.857851        -0.977741         2.205111
 H        -3.519543         0.596233         2.498493
 H        -6.206039         0.263571         2.291846
 H        -6.522470        -1.470170         1.679140
 H        -5.497472        -1.183060         3.074676
