19
Iteration:  1700charge 0 multiplicity 1
 C         0.397631        -1.229527         0.112724
 C        -0.872729        -0.524250         0.068391
 C        -1.661594         0.440145         0.108026
 C        -2.815291         1.206807         0.289000
 O        -2.576021         2.617595         0.443809
 C        -3.605113         0.565763         1.473153
 C        -4.177401        -0.746108         1.063256
 C        -4.497831        -1.833530         2.105358
 O        -4.384826        -0.880851        -0.128823
 H         1.005951        -0.743441        -0.655335
 H         0.849872        -0.975262         1.092135
 H         0.475231        -2.320446        -0.094988
 H        -3.577185         1.031583        -0.430330
 H        -1.618985         2.905426         0.720643
 H        -2.819549         0.596007         2.231975
 H        -4.373101         1.316241         1.786037
 H        -4.676542        -2.825527         1.577411
 H        -3.881392        -1.643475         3.018929
 H        -5.486974        -1.487169         2.569283
