19
Iteration:  2145
 C         0.701345        -1.109296         0.337939
 C        -0.627097        -0.554018         0.133828
 C        -1.627702         0.122191        -0.067386
 C        -2.723547         1.158518         0.050813
 O        -2.269945         2.435417         0.458766
 C        -3.889670         0.802154         1.119422
 C        -4.492764        -0.569316         1.085157
 C        -3.716461        -1.798118         1.683463
 O        -5.577272        -0.804210         0.654120
 H         1.423328        -0.325790         0.742507
 H         0.842228        -1.996463         0.974758
 H         0.990374        -1.512267        -0.645646
 H        -3.286201         1.142044        -1.002043
 H        -1.312499         2.190723         0.705405
 H        -3.292054         0.860594         2.038423
 H        -4.646752         1.588119         1.096748
 H        -2.923120        -1.572779         2.488238
 H        -4.509823        -2.348786         2.326792
 H        -3.523783        -2.555519         0.871706
