19
Iteration:   111charge 0 multiplicity 1
 C         1.520704         0.188607         0.122043
 C         0.077992         0.026393        -0.020673
 C        -1.140440        -0.123509        -0.038226
 C        -2.600429        -0.147212        -0.088651
 O        -2.979182         1.255553        -0.323506
 C        -3.154273        -0.478397         1.385909
 C        -4.680715        -0.336035         1.493026
 C        -5.631051        -1.549816         1.455722
 O        -5.195969         0.784075         1.625143
 H         1.894070         0.370380         1.097534
 H         1.912158        -0.771347        -0.170024
 H         1.958252         0.928914        -0.557782
 H        -2.933815        -0.863241        -0.778702
 H        -3.838084         1.412337        -0.729384
 H        -2.957017        -1.428711         1.753750
 H        -2.682971         0.349744         1.989225
 H        -5.558187        -2.074295         2.351472
 H        -6.577554        -1.041253         1.371407
 H        -5.397528        -2.270298         0.679454
