19
Iteration:  3629
 C         0.442266        -1.281113        -0.189035
 C        -0.905920        -0.715254        -0.049409
 C        -1.779269         0.128623         0.152924
 C        -2.816415         1.121295         0.086707
 O        -2.286376         2.461406         0.005748
 C        -3.651483         0.887656         1.352898
 C        -4.348421        -0.530243         1.376083
 C        -4.065374        -1.497358         2.452071
 O        -4.904170        -0.915910         0.392328
 H         0.399623        -2.330572        -0.658720
 H         1.067895        -0.581269        -0.783604
 H         1.001273        -1.588115         0.754346
 H        -3.413380         0.945936        -0.881266
 H        -1.481479         2.322301         0.452451
 H        -2.912348         0.906488         2.192587
 H        -4.483300         1.612159         1.561253
 H        -2.998351        -1.849862         2.295468
 H        -4.120756        -0.987864         3.488767
 H        -4.799251        -2.351531         2.524420
