19
Iteration:  3769charge 0 multiplicity 1
 C         0.464091        -1.577242        -0.028170
 C        -0.637897        -0.600060         0.077264
 C        -1.471404         0.257670         0.191914
 C        -2.676062         1.019602         0.032627
 O        -2.503075         2.505343         0.047174
 C        -3.722866         0.819565         1.178620
 C        -4.341234        -0.483866         1.298977
 C        -3.708803        -1.520036         2.174349
 O        -5.418569        -0.761185         0.712874
 H         0.151329        -2.092345        -0.984804
 H         1.371612        -1.007016        -0.172812
 H         0.418106        -2.315977         0.704492
 H        -3.148093         0.581350        -0.912394
 H        -2.882303         2.859132        -0.763671
 H        -3.213321         1.071638         2.082704
 H        -4.549160         1.506744         1.024595
 H        -2.674046        -1.659716         1.817221
 H        -3.624104        -1.173488         3.238019
 H        -4.263939        -2.467028         2.224985
