19
Iteration:  3666
 C         0.422833        -1.115685         0.069675
 C        -0.914970        -0.626662        -0.192414
 C        -2.002552        -0.113267        -0.310652
 C        -2.874768         1.098484         0.046003
 O        -2.073304         2.331767         0.114109
 C        -3.674287         0.852833         1.393071
 C        -4.278038        -0.607197         1.323706
 C        -3.906432        -1.507450         2.505644
 O        -5.035908        -0.780901         0.445546
 H         0.517146        -1.969972        -0.570730
 H         1.228536        -0.449126        -0.291535
 H         0.626019        -1.319284         1.168310
 H        -3.611078         1.202887        -0.657393
 H        -1.617718         2.319727         0.953524
 H        -3.015719         1.126839         2.263834
 H        -4.487351         1.614454         1.385585
 H        -2.828731        -1.480706         2.638749
 H        -4.297766        -0.981695         3.318973
 H        -4.309985        -2.471222         2.308915
