19
Iteration:  2863
 C         0.615666        -1.102686        -0.372343
 C        -0.608159        -0.314190        -0.368411
 C        -1.741700         0.009385        -0.144898
 C        -2.731739         0.988615         0.247323
 O        -2.123143         2.282308         0.170662
 C        -3.622721         0.791303         1.521615
 C        -4.414388        -0.562140         1.417405
 C        -4.671506        -1.442601         2.632850
 O        -4.897835        -0.956020         0.346581
 H         0.559851        -1.547331         0.679210
 H         0.489390        -1.991181        -1.028322
 H         1.600998        -0.624401        -0.426824
 H        -3.501638         1.022276        -0.619650
 H        -1.140111         2.220273         0.504965
 H        -3.132805         1.049587         2.533751
 H        -4.461340         1.484103         1.512852
 H        -5.292167        -0.939759         3.358705
 H        -5.212665        -2.345047         2.410666
 H        -3.746215        -1.778950         3.092280
