19
Iteration:  3664
 C         0.420434        -1.114110         0.056405
 C        -0.929440        -0.650110        -0.178961
 C        -1.989089        -0.093701        -0.318447
 C        -2.851849         1.113186         0.073491
 O        -2.080029         2.329994         0.102433
 C        -3.684083         0.863169         1.387063
 C        -4.296419        -0.598079         1.328283
 C        -3.911297        -1.520753         2.510427
 O        -5.021717        -0.791826         0.443960
 H         0.588052        -2.000283        -0.589680
 H         1.242236        -0.454034        -0.311989
 H         0.683003        -1.326139         1.175160
 H        -3.636212         1.147101        -0.647907
 H        -1.646284         2.364737         0.917010
 H        -3.031429         1.129984         2.294395
 H        -4.499834         1.649276         1.404556
 H        -2.788759        -1.537177         2.624727
 H        -4.328028        -0.916027         3.319665
 H        -4.336702        -2.484984         2.266016
