19
Iteration:   106charge 0 multiplicity 1
 C         1.503738         0.199123         0.115027
 C         0.078990         0.001850        -0.044505
 C        -1.139318        -0.108427        -0.008208
 C        -2.605351        -0.183798        -0.062562
 O        -3.008642         1.247958        -0.308531
 C        -3.177426        -0.447106         1.386993
 C        -4.673403        -0.333064         1.463212
 C        -5.614884        -1.549264         1.449196
 O        -5.163754         0.783296         1.646497
 H         1.874283         0.420627         1.168582
 H         1.954317        -0.795308        -0.152731
 H         1.938483         0.998174        -0.504381
 H        -2.920646        -0.891589        -0.929760
 H        -3.658745         1.454954        -1.041347
 H        -2.939562        -1.502816         1.824818
 H        -2.710729         0.371013         1.896630
 H        -5.563761        -2.204405         2.402266
 H        -6.516011        -0.901275         1.334218
 H        -5.450369        -2.195656         0.551128
