19
Iteration:  4857
 C         0.640027        -1.163565        -0.971649
 C        -0.434355        -0.402149        -0.404365
 C        -1.392411         0.279347        -0.044541
 C        -2.691665         0.875478         0.288166
 O        -2.519084         2.369155         0.376586
 C        -3.388358         0.457460         1.597047
 C        -4.333988        -0.692278         1.505363
 C        -5.448718        -0.565007         2.592207
 O        -4.447401        -1.524218         0.569581
 H         1.610791        -1.030272        -0.470974
 H         0.260475        -2.184790        -0.971578
 H         0.742416        -0.827147        -1.980424
 H        -3.332276         0.698252        -0.621874
 H        -1.594310         2.677939         0.431163
 H        -2.663390         0.229359         2.451593
 H        -3.978773         1.287067         1.941104
 H        -5.082552        -0.370546         3.617137
 H        -6.154310         0.214947         2.589271
 H        -6.000198        -1.528365         2.648332
