19
Iteration:   988
 C         1.509818         0.242380         0.440198
 C         0.040067         0.066354         0.183371
 C        -1.154630         0.108664        -0.081937
 C        -2.629441         0.182859        -0.195422
 O        -2.992974         1.338025         0.473557
 C        -3.341162        -0.972385         0.738831
 C        -4.740003        -0.634700         1.107595
 C        -5.028686        -0.324370         2.598911
 O        -5.596931        -0.462832         0.207499
 H         1.847782         1.189291        -0.064558
 H         1.770829         0.374433         1.479905
 H         2.109539        -0.553257         0.064016
 H        -2.779783         0.102664        -1.314582
 H        -2.279890         2.061971         0.234686
 H        -3.146411        -2.056341         0.493724
 H        -2.711464        -0.651381         1.544583
 H        -4.602260         0.753642         2.719476
 H        -6.151126        -0.089803         2.535988
 H        -4.802275        -1.009362         3.416114
