19
Iteration:  2860charge 0 multiplicity 1
 C         0.609712        -1.119997        -0.375710
 C        -0.585466        -0.353460        -0.360292
 C        -1.733529         0.023464        -0.125044
 C        -2.739829         1.025257         0.209689
 O        -2.122142         2.301657         0.172383
 C        -3.632664         0.794906         1.527960
 C        -4.413936        -0.519685         1.443155
 C        -4.661094        -1.466503         2.629088
 O        -4.910255        -0.978108         0.348589
 H         0.658135        -1.573119         0.594009
 H         0.542574        -1.997900        -0.983425
 H         1.507103        -0.536692        -0.442487
 H        -3.461722         1.033285        -0.596015
 H        -1.237899         2.171417         0.478517
 H        -3.161832         0.912390         2.529490
 H        -4.467283         1.479735         1.496848
 H        -5.363333        -0.870709         3.317179
 H        -5.172280        -2.400391         2.348832
 H        -3.710309        -1.819139         3.033113
