19
Iteration:  2642
 C         0.117427        -1.489733         0.066106
 C        -0.844087        -0.487305        -0.299779
 C        -1.673239         0.335037        -0.094959
 C        -2.797156         1.263735         0.190383
 O        -2.229678         2.681172         0.271483
 C        -3.786119         0.902980         1.467714
 C        -4.231122        -0.660534         1.287956
 C        -4.065949        -1.682852         2.350905
 O        -4.760676        -1.122955         0.211004
 H         0.536759        -1.555036         1.109088
 H        -0.349540        -2.512923        -0.169972
 H         0.993007        -1.447826        -0.683686
 H        -3.547666         1.312367        -0.698780
 H        -1.270770         2.500338         0.647394
 H        -3.064519         1.035229         2.374040
 H        -4.528514         1.707157         1.469118
 H        -3.059663        -2.164069         2.299363
 H        -4.039150        -1.296907         3.336282
 H        -4.733261        -2.489578         2.471970
