19
Iteration:   170charge 0 multiplicity 1
 C         1.421625        -0.014220         0.057410
 C         0.024077        -0.089093         0.054445
 C        -1.167141         0.032202         0.149289
 C        -2.536734         0.071284        -0.036588
 O        -2.986270         1.462746        -0.219845
 C        -3.176805        -0.439280         1.212269
 C        -4.690523        -0.388349         1.361627
 C        -5.467377        -1.658069         1.692129
 O        -5.239652         0.696775         1.386082
 H         1.731910         0.348335         1.091307
 H         1.930806        -1.001755        -0.142234
 H         1.759263         0.695977        -0.732292
 H        -2.888859        -0.525427        -0.887057
 H        -3.313908         1.415565        -1.138435
 H        -2.742819        -1.463436         1.495437
 H        -2.874473         0.194769         2.043049
 H        -5.577876        -1.941805         2.780470
 H        -6.530962        -1.708189         1.330987
 H        -5.050578        -2.523731         1.153019
