19
Iteration:  3926charge 0 multiplicity 1
 C         0.495821        -1.244437         0.452350
 C        -0.562870        -0.521284        -0.264364
 C        -1.579215         0.151645        -0.242077
 C        -2.671968         1.036733        -0.126813
 O        -2.307921         2.356471         0.083384
 C        -3.659568         0.724306         1.155335
 C        -4.372329        -0.533064         1.338878
 C        -3.751214        -1.854462         1.850378
 O        -5.617153        -0.490119         1.129565
 H         1.245923        -1.765787        -0.099022
 H         0.967273        -0.482021         1.115913
 H        -0.023748        -2.032270         1.128725
 H        -3.362841         0.902192        -0.919659
 H        -2.903415         2.901409        -0.557575
 H        -3.109092         0.993194         2.085083
 H        -4.550344         1.363569         1.176968
 H        -3.262138        -2.687367         1.145241
 H        -2.859415        -1.556548         2.457697
 H        -4.416264        -2.411472         2.614683
