19
Iteration:  4007
 C         0.696973        -1.099680         0.304627
 C        -0.637971        -0.554317         0.186090
 C        -1.752985        -0.095754        -0.028409
 C        -2.825340         0.938347        -0.113686
 O        -2.301360         2.200935        -0.034522
 C        -3.620085         0.861514         1.223372
 C        -4.340777        -0.438318         1.323489
 C        -3.714111        -1.785025         1.567625
 O        -5.639232        -0.418719         1.181004
 H         1.282412        -1.091043        -0.657109
 H         1.410355        -0.638816         0.979994
 H         0.831271        -2.112694         0.638315
 H        -3.521539         0.701335        -1.086347
 H        -3.040217         2.741891        -0.356877
 H        -2.909321         0.989962         2.043010
 H        -4.445812         1.588178         1.264027
 H        -3.022656        -2.009138         0.682365
 H        -3.077115        -1.817973         2.510322
 H        -4.427495        -2.593575         1.617499
