19
Iteration:  1570
 C         0.684623        -1.029933        -0.170348
 C        -0.536462        -0.333306         0.245659
 C        -1.458252         0.441286         0.237636
 C        -2.754349         1.061941         0.220260
 O        -2.518060         2.431029         0.772486
 C        -3.761942         0.606647         1.183929
 C        -4.369093        -0.787259         0.998689
 C        -4.688272        -1.503265         2.263751
 O        -4.651107        -1.213492        -0.140862
 H         1.124466        -0.647623        -1.051370
 H         1.386726        -0.935393         0.688725
 H         0.446289        -2.124479        -0.249693
 H        -3.339727         1.009657        -0.785310
 H        -2.132434         2.723727        -0.013567
 H        -3.346029         0.671392         2.193670
 H        -4.502489         1.400625         1.156085
 H        -5.722934        -1.125570         2.471857
 H        -4.824885        -2.589465         2.122644
 H        -4.038635        -1.160728         3.120403
