19
Iteration:   280
 C         1.489657        -0.400837         0.001236
 C        -0.028540        -0.234818         0.109045
 C        -1.188023         0.163544         0.043755
 C        -2.628497         0.464153         0.161390
 O        -2.892228         1.857505        -0.158250
 C        -3.163253        -0.140675         1.428026
 C        -4.734733        -0.443034         1.408367
 C        -5.211354        -1.848904         1.874580
 O        -5.521937         0.249735         0.772103
 H         2.035451        -0.046934         0.920342
 H         1.782725        -1.470977        -0.126921
 H         1.861004        -0.108702        -0.975479
 H        -3.212316        -0.009960        -0.654954
 H        -2.986628         2.447351         0.632007
 H        -2.550961        -1.101131         1.803193
 H        -3.020068         0.518624         2.267214
 H        -4.573368        -2.425794         2.601056
 H        -6.272801        -1.696934         2.002509
 H        -5.159356        -2.321031         0.908626
