19
Iteration:  1264charge 0 multiplicity 1
 C         1.300967        -0.477039        -0.202334
 C        -0.006872         0.030431         0.103666
 C        -1.186562         0.198566         0.265845
 C        -2.640751         0.610412         0.417810
 O        -2.700076         2.078853         0.186708
 C        -3.453982         0.187429         1.569939
 C        -4.617908        -0.755215         1.120544
 C        -5.523349        -1.264532         2.246275
 O        -5.074452        -0.905974         0.032857
 H         1.689920         0.003337        -1.090234
 H         2.158181        -0.223022         0.479911
 H         1.266659        -1.598419        -0.401122
 H        -2.892889         0.230985        -0.576652
 H        -2.889075         2.365708        -0.797923
 H        -2.819080        -0.472996         2.211520
 H        -3.760812         1.083140         2.164704
 H        -6.545041        -1.496142         2.035941
 H        -5.229163        -2.307933         2.593530
 H        -5.319337        -0.534724         3.114005
