19
Iteration:  2554charge 0 multiplicity 1
 C         0.335296        -1.566947        -0.203144
 C        -0.841332        -0.641748         0.029921
 C        -1.615190         0.266649         0.259384
 C        -2.743718         1.299539         0.233121
 O        -2.365232         2.603242         0.330424
 C        -3.950165         0.934881         1.185227
 C        -4.324286        -0.632064         1.129855
 C        -3.727271        -1.565235         2.355603
 O        -4.974420        -1.047836         0.254782
 H         1.038772        -1.492492         0.662753
 H         0.119630        -2.649967        -0.475900
 H         0.869529        -1.020419        -1.051510
 H        -3.232348         1.090967        -0.785849
 H        -1.708986         2.606011         1.117856
 H        -3.762933         1.143708         2.293746
 H        -4.677602         1.678506         0.888409
 H        -4.131416        -2.555440         2.158977
 H        -2.676906        -1.571364         2.315072
 H        -4.284728        -1.068342         3.142905
