19
Iteration:  4312
 C         0.925645        -1.226051         0.041280
 C        -0.306320        -0.457847        -0.038051
 C        -1.393573         0.078835         0.096919
 C        -2.674735         0.847307         0.079356
 O        -2.348279         2.246065        -0.038205
 C        -3.794810         0.717846         1.259972
 C        -4.785816        -0.424599         1.330954
 C        -3.828648        -1.633512         1.796121
 O        -5.958127        -0.517028         1.061867
 H         1.784287        -0.539252        -0.339630
 H         1.114752        -1.541807         1.087700
 H         0.841241        -2.125976        -0.577902
 H        -3.244599         0.574340        -0.825122
 H        -1.417845         2.232655         0.226259
 H        -3.223142         0.946654         2.223544
 H        -4.377507         1.635233         1.114017
 H        -2.970139        -1.501277         1.075542
 H        -3.350443        -1.328932         2.711259
 H        -4.274281        -2.645613         1.656487
