19
Iteration:  3038
 C         0.633465        -1.110695        -0.767465
 C        -0.572820        -0.657058        -0.171811
 C        -1.328688         0.268363         0.135315
 C        -2.592634         0.931150         0.366707
 O        -2.659336         2.466625         0.026730
 C        -3.288303         0.488108         1.622873
 C        -4.347545        -0.564451         1.461569
 C        -5.218238        -1.067235         2.615823
 O        -4.665909        -1.107983         0.346327
 H         1.070259        -1.959323        -0.222894
 H         0.379848        -1.559032        -1.723090
 H         1.376579        -0.373737        -0.928225
 H        -3.153197         0.598174        -0.526508
 H        -1.825229         2.872708         0.346360
 H        -2.451910         0.019903         2.298338
 H        -3.671466         1.193259         2.327970
 H        -4.992524        -0.699985         3.642823
 H        -6.291996        -0.973424         2.332786
 H        -4.926162        -2.135141         2.832795
