19
Iteration:  3321
 C         0.365733        -1.370318        -0.814812
 C        -0.531844        -0.432110        -0.115137
 C        -1.358803         0.412748         0.159265
 C        -2.671718         1.114316         0.249223
 O        -2.413043         2.494243         0.307453
 C        -3.564939         0.681928         1.391785
 C        -4.315564        -0.733266         1.423710
 C        -5.114200        -1.084637         2.721043
 O        -4.405569        -1.376666         0.362521
 H         0.433184        -2.440147        -0.380707
 H         0.177892        -1.484119        -1.930682
 H         1.397373        -0.961625        -0.709808
 H        -3.316579         0.800944        -0.702850
 H        -1.781854         2.750992        -0.361450
 H        -3.148195         0.778808         2.397970
 H        -4.486277         1.424858         1.310801
 H        -4.810016        -1.853146         3.414580
 H        -5.352099        -0.148253         3.221850
 H        -5.962308        -1.638932         2.361966
