19
Iteration:  3191
 C         0.590869        -1.100042        -0.638672
 C        -0.542136        -0.260666        -0.313917
 C        -1.718740         0.139277        -0.221642
 C        -2.843224         0.960002         0.159909
 O        -2.303156         2.200793         0.577073
 C        -3.471218         0.526234         1.443985
 C        -4.416816        -0.638841         1.386325
 C        -5.068578        -0.766085         2.732020
 O        -4.439048        -1.385197         0.320734
 H         0.714879        -1.909809         0.138251
 H         0.582024        -1.646639        -1.590050
 H         1.561719        -0.637367        -0.522583
 H        -3.461428         1.055825        -0.674011
 H        -1.511132         2.456722        -0.032305
 H        -2.656738         0.189785         2.076069
 H        -4.021616         1.352046         1.916647
 H        -4.337070        -0.461001         3.513544
 H        -5.876282         0.014565         2.814672
 H        -5.737363        -1.623155         2.930605
