19
Iteration:  3927
 C         0.490439        -1.235476         0.456893
 C        -0.560173        -0.521945        -0.271594
 C        -1.578180         0.145617        -0.248219
 C        -2.666891         1.047228        -0.119485
 O        -2.302509         2.359072         0.078859
 C        -3.652653         0.722869         1.152871
 C        -4.362200        -0.532321         1.340714
 C        -3.767483        -1.854666         1.849222
 O        -5.625464        -0.501999         1.136545
 H         1.233946        -1.753636        -0.080104
 H         0.973990        -0.483148         1.122004
 H         0.002503        -2.043008         1.130770
 H        -3.382139         0.911717        -0.965568
 H        -2.872832         2.889294        -0.546335
 H        -3.121056         1.000893         2.083248
 H        -4.550741         1.362807         1.193446
 H        -3.270766        -2.674635         1.142452
 H        -2.872256        -1.567922         2.457898
 H        -4.418741        -2.411619         2.610441
