19
Iteration:  4933charge 0 multiplicity 1
 C         0.606224        -0.948158        -1.161264
 C        -0.508044        -0.490402        -0.340550
 C        -1.454037         0.051515         0.266198
 C        -2.754944         0.786144         0.391605
 O        -2.334334         2.219774         0.265559
 C        -3.525627         0.617702         1.566124
 C        -4.348937        -0.635174         1.561666
 C        -5.522016        -0.628817         2.575686
 O        -4.232475        -1.380980         0.571744
 H         1.477275        -0.903197        -0.519979
 H         0.446805        -1.971453        -1.500678
 H         0.787675        -0.281368        -1.961386
 H        -3.305849         0.412745        -0.567993
 H        -1.938120         2.398347        -0.641616
 H        -2.814682         0.651298         2.468117
 H        -4.184012         1.442840         1.781452
 H        -5.311595        -0.686532         3.697056
 H        -6.183991         0.242527         2.555230
 H        -6.053333        -1.606592         2.509679
