19
Iteration:   651charge 0 multiplicity 1
 C         1.207142        -0.362942        -0.630503
 C        -0.123811        -0.112502        -0.109015
 C        -1.244375         0.144213         0.265101
 C        -2.577058         0.654405         0.534124
 O        -2.566373         2.035732         0.968744
 C        -3.295589        -0.187093         1.579944
 C        -4.684383        -0.726241         1.040910
 C        -5.804130        -0.452356         1.929960
 O        -4.785994        -1.374262         0.013489
 H         1.955646         0.474868        -0.449909
 H         1.703031        -1.263309        -0.183753
 H         1.198857        -0.550221        -1.708676
 H        -3.183879         0.438343        -0.366708
 H        -3.368469         2.396832         0.583895
 H        -2.675331        -1.093014         1.835516
 H        -3.527633         0.332302         2.520062
 H        -5.969503         0.645608         1.569735
 H        -6.733254        -1.000871         1.674664
 H        -5.749281        -0.306133         3.010965
