19
Iteration:  1629charge 0 multiplicity 1
 C         0.422921        -1.211560         0.138365
 C        -0.520582        -0.192915        -0.125670
 C        -1.449856         0.565392         0.070780
 C        -2.760079         1.252506         0.275259
 O        -2.536803         2.573910         0.583258
 C        -3.659426         0.549929         1.348225
 C        -4.313644        -0.848597         1.069879
 C        -4.687737        -1.707106         2.186532
 O        -4.612114        -1.178701        -0.090875
 H         1.296475        -1.210015        -0.649792
 H         1.015395        -1.131286         1.059282
 H         0.153249        -2.276506         0.057791
 H        -3.284338         1.133679        -0.748618
 H        -1.643502         2.496153         1.124619
 H        -3.123399         0.377517         2.310210
 H        -4.517734         1.259070         1.502797
 H        -5.720141        -2.024092         2.044498
 H        -3.942155        -2.468455         2.280450
 H        -4.496165        -1.176680         3.075555
