19
Iteration:  4337
 C         0.826738        -1.354204        -0.032353
 C        -0.380209        -0.518322         0.060233
 C        -1.370539         0.182469         0.279197
 C        -2.638759         0.982839         0.110165
 O        -2.378703         2.441314        -0.113660
 C        -3.815419         0.846827         1.123146
 C        -4.553045        -0.496459         1.296220
 C        -3.948955        -1.823591         1.856056
 O        -5.818373        -0.615654         1.083897
 H         1.567837        -0.583211        -0.398420
 H         1.162753        -1.847223         0.910140
 H         0.709314        -2.115739        -0.806787
 H        -3.174585         0.568579        -0.893810
 H        -1.476182         2.425404         0.103281
 H        -3.428053         1.281564         2.030441
 H        -4.565686         1.599349         0.790681
 H        -3.071203        -2.195475         1.271837
 H        -3.560077        -1.447332         2.849414
 H        -4.755909        -2.531505         1.840630
