19
Iteration:   564charge 0 multiplicity 1
 C         1.205483        -0.568093        -0.579181
 C        -0.115602        -0.165256        -0.167377
 C        -1.173234         0.358421         0.145929
 C        -2.572979         0.670265         0.529524
 O        -2.635850         2.102457         0.866913
 C        -3.386991        -0.149196         1.663011
 C        -4.706287        -0.756458         1.136797
 C        -5.860119        -0.772536         2.064363
 O        -4.700003        -1.111314        -0.029276
 H         1.790780         0.263051        -0.117975
 H         1.586889        -1.536374        -0.242389
 H         1.244512        -0.504731        -1.652011
 H        -3.068011         0.581574        -0.453212
 H        -2.496367         2.638897        -0.030826
 H        -2.667147        -0.980722         1.803797
 H        -3.564268         0.445478         2.545253
 H        -6.235542         0.332773         2.019321
 H        -6.700165        -1.397865         1.670063
 H        -5.459666        -0.945221         3.063779
