19
Iteration:  4352
 C         0.683331        -1.326907        -0.096220
 C        -0.500826        -0.521943         0.246625
 C        -1.446852         0.245963         0.330898
 C        -2.635459         1.006746         0.044645
 O        -2.396817         2.428093        -0.096126
 C        -3.777122         0.827346         1.041394
 C        -4.442891        -0.595197         1.238100
 C        -3.927306        -1.854521         1.899579
 O        -5.640434        -0.529420         1.066901
 H         1.541861        -0.836992        -0.396837
 H         1.001748        -1.897181         0.767963
 H         0.441218        -2.061004        -0.900786
 H        -2.961581         0.669086        -0.988896
 H        -1.459334         2.680111         0.035704
 H        -3.597412         1.193605         2.056745
 H        -4.608842         1.380240         0.632958
 H        -3.101442        -2.363983         1.437829
 H        -3.581828        -1.797569         2.926776
 H        -4.813893        -2.517198         1.970164
