19
Iteration:  2628
 C         0.152040        -1.560719        -0.018451
 C        -0.797371        -0.391338        -0.227698
 C        -1.721987         0.355771        -0.092582
 C        -2.773047         1.331259         0.244521
 O        -2.223845         2.614544         0.279587
 C        -3.723433         0.818836         1.339491
 C        -4.301663        -0.629643         1.281170
 C        -4.018811        -1.646901         2.428149
 O        -4.790422        -1.128361         0.237972
 H         0.368286        -1.398913         1.026679
 H        -0.386493        -2.516442        -0.029400
 H         1.116134        -1.625998        -0.532100
 H        -3.423259         1.402668        -0.677768
 H        -1.438502         2.621814         0.767443
 H        -3.525989         0.999880         2.411326
 H        -4.751932         1.359917         1.282892
 H        -3.245260        -2.206282         1.877783
 H        -3.621572        -1.246387         3.352085
 H        -4.918763        -2.301277         2.282720
