19
Iteration:  4833
 C         0.651938        -1.128844        -0.817457
 C        -0.607261        -0.455872        -0.397640
 C        -1.643923         0.140379        -0.140808
 C        -2.771434         0.957576         0.340025
 O        -2.524820         2.403541         0.396786
 C        -3.238533         0.412283         1.549419
 C        -4.305206        -0.657856         1.391199
 C        -5.295183        -0.572264         2.560296
 O        -4.394553        -1.506843         0.551407
 H         1.385531        -0.759933        -0.173168
 H         0.542204        -2.215133        -0.716502
 H         0.965476        -0.819491        -1.820385
 H        -3.593283         0.888218        -0.480528
 H        -1.636536         2.636954         0.531765
 H        -2.454493        -0.228146         2.038163
 H        -3.500744         1.153090         2.334246
 H        -4.857551        -0.174425         3.515664
 H        -5.863016         0.356153         2.443552
 H        -6.019400        -1.373748         2.848647
