19
Iteration:  2110charge 0 multiplicity 1
 C         0.502025        -1.192545         0.393397
 C        -0.699307        -0.494177         0.172881
 C        -1.690463         0.207462         0.081783
 C        -2.771826         1.137171         0.112138
 O        -2.317592         2.461276         0.319191
 C        -3.809691         0.782363         1.265283
 C        -4.386328        -0.601100         1.068378
 C        -3.567994        -1.918593         1.608836
 O        -5.490306        -0.699764         0.524188
 H         1.387359        -0.492360         0.614223
 H         0.353527        -1.987334         1.153898
 H         0.780160        -1.636803        -0.588324
 H        -3.498935         1.013930        -0.776497
 H        -1.323636         2.434946         0.230925
 H        -3.304665         0.681329         2.261238
 H        -4.564589         1.576820         1.323604
 H        -2.492604        -1.797413         1.547536
 H        -3.856914        -1.921463         2.661030
 H        -3.773876        -2.902786         1.163853
