19
Iteration:  3149
 C         0.723012        -1.022518        -0.578311
 C        -0.648090        -0.549550        -0.381265
 C        -1.642796         0.188087        -0.285688
 C        -2.723858         1.117991         0.088314
 O        -2.141099         2.430050         0.562456
 C        -3.499305         0.544879         1.326533
 C        -4.452330        -0.679629         1.402822
 C        -5.118039        -0.914939         2.748566
 O        -4.721992        -1.527518         0.480950
 H         1.139530        -1.696034         0.175649
 H         0.876919        -1.320518        -1.596851
 H         1.248513        -0.087212        -0.562513
 H        -3.455669         1.389093        -0.712826
 H        -1.161317         2.308320         0.423299
 H        -2.739165         0.156977         2.097041
 H        -3.962629         1.407437         1.738618
 H        -4.605127        -0.460414         3.634357
 H        -6.063416        -0.231976         2.766290
 H        -5.393915        -1.962710         3.002013
