19
Iteration:   955
 C         1.436023         0.251260         0.473938
 C         0.015142         0.126239         0.053094
 C        -1.152391        -0.070915        -0.208647
 C        -2.589610         0.180692         0.007389
 O        -2.873268         1.462818         0.480693
 C        -3.306833        -0.938920         0.808900
 C        -4.771925        -0.517978         1.062749
 C        -4.995018        -0.241573         2.492553
 O        -5.606496        -0.623474         0.192326
 H         1.798539         1.224426         0.037901
 H         1.602231         0.350367         1.540607
 H         2.059794        -0.479012         0.025630
 H        -3.028033         0.260525        -1.056378
 H        -3.027599         1.453056         1.426869
 H        -3.455641        -1.850759         0.144634
 H        -2.781810        -1.420064         1.630470
 H        -4.822480         0.900871         2.665627
 H        -6.103944        -0.458585         2.700008
 H        -4.489257        -0.719886         3.331910
