19
Iteration:  4360charge 0 multiplicity 1
 C         0.589440        -1.326714        -0.096165
 C        -0.528496        -0.508091         0.320742
 C        -1.463387         0.248637         0.335515
 C        -2.568476         1.042432         0.006025
 O        -2.418791         2.420524        -0.077071
 C        -3.802642         0.762740         0.997014
 C        -4.360894        -0.610211         1.277727
 C        -3.892929        -1.875894         1.920856
 O        -5.626398        -0.496478         1.025206
 H         1.426267        -0.695282        -0.432398
 H         0.872819        -2.029218         0.723893
 H         0.247689        -2.013621        -0.911359
 H        -3.138377         0.585298        -0.997244
 H        -1.420339         2.574017         0.032416
 H        -3.400541         1.132981         1.909119
 H        -4.614106         1.473570         0.782553
 H        -3.044975        -2.302482         1.355963
 H        -3.433779        -1.562526         2.923873
 H        -4.743379        -2.537408         1.838601
