19
Iteration:  4371
 C         0.448891        -1.377711        -0.072702
 C        -0.544187        -0.497656         0.427607
 C        -1.468262         0.263122         0.320081
 C        -2.676778         1.009962        -0.048233
 O        -2.421058         2.444196        -0.043592
 C        -3.686000         0.727710         1.007919
 C        -4.428841        -0.551002         1.277807
 C        -3.770802        -1.846633         1.904983
 O        -5.587305        -0.523216         0.966612
 H         1.239851        -0.697196        -0.429414
 H         0.948958        -2.109908         0.591778
 H         0.041266        -1.816364        -1.009297
 H        -2.826368         0.736395        -1.184498
 H        -1.494474         2.555673        -0.025779
 H        -3.154139         0.995369         1.887132
 H        -4.532356         1.408265         0.836321
 H        -2.937017        -2.152352         1.266577
 H        -3.433772        -1.553504         2.950204
 H        -4.510367        -2.631521         2.076765
