19
Iteration:  1072charge 0 multiplicity 1
 C         1.577925         0.003953         0.253781
 C         0.066282         0.114561         0.320789
 C        -1.103370         0.341196         0.012216
 C        -2.561549         0.137333        -0.034933
 O        -3.177829         1.560289         0.251870
 C        -3.195825        -0.896126         0.927613
 C        -4.693407        -0.607911         1.123766
 C        -5.239672        -0.555684         2.550537
 O        -5.446337        -0.368886         0.222796
 H         2.023629         0.719491        -0.489276
 H         2.005422         0.222441         1.248561
 H         1.839260        -1.024540        -0.085443
 H        -2.715801        -0.105474        -1.080935
 H        -3.951346         1.515065        -0.308489
 H        -3.145748        -1.923815         0.558355
 H        -2.496142        -0.804931         1.780487
 H        -4.579696        -0.175111         3.250159
 H        -6.247398        -0.112127         2.479486
 H        -5.250157        -1.641729         2.716276
