19
Iteration:  4351
 C         0.691480        -1.328875        -0.093365
 C        -0.493319        -0.523994         0.235982
 C        -1.442616         0.244049         0.329671
 C        -2.646720         1.004919         0.054327
 O        -2.396478         2.429760        -0.098599
 C        -3.771344         0.832823         1.050103
 C        -4.461135        -0.584998         1.233188
 C        -3.929131        -1.855043         1.896011
 O        -5.639875        -0.536075         1.071406
 H         1.549453        -0.832209        -0.395694
 H         1.024005        -1.889551         0.780538
 H         0.457609        -2.061706        -0.905327
 H        -2.953642         0.663244        -1.036762
 H        -1.429389         2.687967         0.041658
 H        -3.605675         1.190916         2.041075
 H        -4.608136         1.362401         0.612246
 H        -3.110329        -2.368192         1.423292
 H        -3.605624        -1.798287         2.950727
 H        -4.804587        -2.514391         1.986918
