19
Iteration:  3403charge 0 multiplicity 1
 C         0.385983        -1.187568        -0.341531
 C        -0.794302        -0.462193        -0.143953
 C        -1.860705         0.125310        -0.373781
 C        -2.810826         1.077684         0.067572
 O        -2.174524         2.293968         0.557268
 C        -3.639399         0.768765         1.359392
 C        -4.229311        -0.650036         1.366009
 C        -4.670801        -1.081437         2.726594
 O        -4.450898        -1.262399         0.238490
 H         0.160781        -2.178113        -0.036366
 H         0.509054        -1.113410        -1.404170
 H         1.279613        -0.772755         0.143459
 H        -3.605857         1.336056        -0.734364
 H        -1.467662         2.554364        -0.153977
 H        -2.890154         0.934911         2.186607
 H        -4.384989         1.470413         1.551498
 H        -3.813360        -1.367620         3.377694
 H        -5.226998        -0.341737         3.312952
 H        -5.375511        -1.949693         2.609250
