19
Iteration:  2139charge 0 multiplicity 1
 C         0.689329        -1.105889         0.356334
 C        -0.662715        -0.581259         0.140244
 C        -1.694693         0.121021         0.007799
 C        -2.730934         1.185140        -0.027081
 O        -2.280517         2.443604         0.464753
 C        -3.833935         0.733461         1.116637
 C        -4.449724        -0.567407         1.121522
 C        -3.721240        -1.783351         1.647132
 O        -5.533356        -0.775581         0.640389
 H         1.426988        -0.381876         0.613386
 H         0.627313        -1.981150         1.025597
 H         1.051378        -1.459715        -0.626153
 H        -3.398816         1.157287        -0.819143
 H        -1.399180         2.268697         0.640958
 H        -3.345044         0.763623         2.104534
 H        -4.667873         1.452140         1.017977
 H        -2.815740        -1.621150         2.209534
 H        -4.389859        -2.163732         2.403153
 H        -3.522901        -2.548081         0.919395
