19
Iteration:  2045charge 0 multiplicity 1
 C         0.402809        -1.523432         0.351801
 C        -0.641466        -0.423603         0.294932
 C        -1.473783         0.451033         0.241538
 C        -2.779370         1.107668         0.190119
 O        -2.745800         2.573190         0.209036
 C        -3.730121         0.682282         1.316216
 C        -4.253572        -0.643627         1.031095
 C        -3.665809        -1.898654         1.653453
 O        -5.233364        -0.583867         0.396986
 H         1.464617        -1.183751         0.307689
 H         0.161390        -2.228468         1.130428
 H         0.460734        -2.034514        -0.594302
 H        -3.293361         0.973042        -0.761488
 H        -1.774461         2.816710        -0.042431
 H        -3.159100         0.498967         2.211951
 H        -4.511026         1.431810         1.342014
 H        -3.142516        -2.580336         0.899169
 H        -2.690766        -1.841780         2.200426
 H        -4.454695        -2.486137         2.179806
