19
Iteration:  4400charge 0 multiplicity 1
 C         0.396692        -1.569561         0.037399
 C        -0.546387        -0.540158         0.354340
 C        -1.441149         0.243728         0.127161
 C        -2.715440         1.068662         0.104101
 O        -2.466994         2.465598        -0.036175
 C        -3.735233         0.841818         1.223682
 C        -4.442928        -0.496572         1.251993
 C        -3.615567        -1.581761         1.767506
 O        -5.606898        -0.745695         0.858085
 H         1.378935        -0.994209        -0.249604
 H         0.774842        -2.323004         0.742971
 H         0.086187        -2.036646        -0.878869
 H        -3.058771         0.835554        -0.837548
 H        -1.574624         2.575852        -0.388703
 H        -3.185286         0.829549         2.239388
 H        -4.468199         1.699346         1.330029
 H        -2.634393        -1.745603         1.226029
 H        -3.157389        -1.257118         2.739530
 H        -4.088975        -2.497479         2.060984
