19
Iteration:  3281charge 0 multiplicity 1
 C         0.429752        -1.358571        -0.853661
 C        -0.458079        -0.362151        -0.147370
 C        -1.563078         0.154378         0.204062
 C        -2.746432         0.932408         0.315161
 O        -2.636547         2.318610         0.308342
 C        -3.481931         0.676079         1.637680
 C        -4.323749        -0.481198         1.303823
 C        -5.122341        -0.920443         2.547805
 O        -4.177311        -1.247800         0.354368
 H         0.495261        -2.321894        -0.361389
 H         0.016937        -1.414679        -1.829222
 H         1.344783        -0.823827        -0.858331
 H        -3.357697         0.689505        -0.501333
 H        -2.013212         2.442609        -0.501627
 H        -2.678801         0.411645         2.359689
 H        -3.855205         1.482925         2.149243
 H        -4.429455        -1.619373         3.086411
 H        -5.543861        -0.073890         3.136475
 H        -6.015072        -1.419026         2.147352
