19
Iteration:  3102charge 0 multiplicity 1
 C         0.762110        -1.086774        -0.631176
 C        -0.459829        -0.257436        -0.511358
 C        -1.620170         0.081070        -0.166360
 C        -2.767368         0.900222         0.233463
 O        -2.252117         2.331003         0.315924
 C        -3.512908         0.615279         1.558633
 C        -4.404913        -0.717839         1.468131
 C        -5.194099        -1.019706         2.707036
 O        -4.671273        -1.209788         0.460314
 H         0.614598        -1.753556         0.243086
 H         0.690208        -1.671063        -1.573974
 H         1.746225        -0.607361        -0.604608
 H        -3.442899         0.826123        -0.549475
 H        -1.348322         2.291842         0.809884
 H        -2.761667         0.799050         2.306446
 H        -4.332745         1.397627         1.626096
 H        -4.880172        -0.428099         3.599387
 H        -6.242888        -0.651492         2.542096
 H        -5.158446        -2.151507         2.786538
