19
Iteration:   863charge 0 multiplicity 1
 C         1.577776        -0.041425         0.052291
 C         0.090427         0.111827         0.052929
 C        -1.122771         0.234501         0.130568
 C        -2.603639         0.313168         0.064608
 O        -2.920372         1.569677         0.839782
 C        -3.252571        -0.781030         0.841233
 C        -4.812313        -0.699586         1.056275
 C        -5.292309        -0.038182         2.321584
 O        -5.562575        -0.999952         0.165771
 H         1.964942         0.939330        -0.205563
 H         2.038675        -0.226641         1.042510
 H         1.939009        -0.785239        -0.710702
 H        -3.071684         0.126565        -0.941388
 H        -2.471122         2.204859         0.131145
 H        -3.157607        -1.696730         0.313857
 H        -2.681673        -0.885470         1.786769
 H        -5.252606         1.005622         2.117279
 H        -6.243821        -0.523703         2.469576
 H        -4.656604        -0.317459         3.196891
