19
Iteration:  1642charge 0 multiplicity 1
 C         0.440470        -1.228737         0.127438
 C        -0.595333        -0.194537        -0.047967
 C        -1.544215         0.585080         0.039013
 C        -2.807169         1.115181         0.212087
 O        -2.480927         2.602553         0.555893
 C        -3.607452         0.482652         1.388546
 C        -4.318967        -0.825043         1.012484
 C        -4.661486        -1.744583         2.272594
 O        -4.520136        -1.058391        -0.150298
 H         1.289031        -1.186807        -0.662394
 H         0.724452        -1.079400         1.178197
 H        -0.172410        -2.107067         0.159075
 H        -3.471908         1.200846        -0.609371
 H        -1.878371         2.600797         1.246393
 H        -2.960345         0.573396         2.283691
 H        -4.436442         1.216883         1.640036
 H        -5.540247        -2.339235         2.148836
 H        -3.912263        -2.543069         2.389082
 H        -4.752304        -1.127985         3.174397
