19
Iteration:  2932charge 0 multiplicity 1
 C         0.692654        -1.036122        -0.505964
 C        -0.685478        -0.712420        -0.150230
 C        -1.559481         0.180270        -0.261472
 C        -2.630014         1.071598         0.166915
 O        -2.393246         2.525374         0.290179
 C        -3.330886         0.467337         1.475627
 C        -4.379852        -0.703203         1.413012
 C        -4.931746        -1.177214         2.738221
 O        -4.937532        -1.063527         0.323678
 H         1.030822        -1.660351         0.397778
 H         0.811917        -1.846959        -1.282922
 H         1.427946        -0.155915        -0.610275
 H        -3.381083         1.079935        -0.685877
 H        -1.423706         2.719861         0.407463
 H        -2.488097         0.184963         2.141666
 H        -3.795334         1.412748         1.958796
 H        -5.128977        -0.364450         3.393775
 H        -5.877429        -1.666329         2.453130
 H        -4.262769        -1.999694         2.994859
