19
Iteration:  3343charge 0 multiplicity 1
 C         0.435345        -1.385367        -0.666106
 C        -0.628979        -0.499580        -0.405529
 C        -1.375893         0.341200         0.147369
 C        -2.612789         1.172087         0.264971
 O        -2.388168         2.621226         0.354664
 C        -3.648268         0.721942         1.393269
 C        -4.408702        -0.650397         1.412997
 C        -5.014290        -1.113235         2.641369
 O        -4.500368        -1.498797         0.459807
 H         0.511107        -2.433552        -0.219237
 H         0.584246        -1.641800        -1.764789
 H         1.390788        -0.867496        -0.426483
 H        -2.992608         0.963948        -0.793414
 H        -1.536072         2.856774        -0.129943
 H        -3.149833         0.932104         2.352516
 H        -4.579387         1.435073         1.244363
 H        -4.241552        -1.813262         2.985045
 H        -5.254165        -0.399868         3.429642
 H        -5.729833        -1.855578         2.352131
