19
Iteration:   116
 C         1.534428         0.163593         0.112658
 C         0.060187         0.062187         0.017461
 C        -1.125663        -0.142160        -0.077348
 C        -2.595748        -0.078214        -0.083907
 O        -2.943264         1.258362        -0.350405
 C        -3.140717        -0.492292         1.374428
 C        -4.694454        -0.320713         1.525915
 C        -5.634155        -1.528782         1.452750
 O        -5.227070         0.774512         1.599527
 H         1.871829         0.368857         1.177805
 H         1.994085        -0.814019        -0.222194
 H         1.940588         0.882716        -0.635468
 H        -3.066420        -0.887241        -0.779634
 H        -3.984418         1.210018        -0.291449
 H        -2.777075        -1.551459         1.692907
 H        -2.714656         0.200643         2.100477
 H        -5.553382        -2.020616         2.514986
 H        -6.759012        -1.316645         1.380221
 H        -5.352744        -2.348837         0.750276
