19
Iteration:  2792
 C         0.471194        -1.477802        -0.483268
 C        -0.550375        -0.519064         0.062609
 C        -1.504701         0.229207         0.136658
 C        -2.794299         1.101808         0.110728
 O        -2.537347         2.478866         0.254750
 C        -3.567793         0.689231         1.438337
 C        -4.320248        -0.601276         1.187052
 C        -4.298234        -1.362606         2.524800
 O        -4.975786        -0.862207         0.258690
 H         0.921580        -1.957426         0.352549
 H        -0.053809        -2.256273        -1.010933
 H         1.300746        -1.047884        -1.032316
 H        -3.502268         0.926487        -0.643102
 H        -1.810291         2.481966         0.990016
 H        -2.916732         0.655678         2.272979
 H        -4.198118         1.566679         1.681113
 H        -4.878453        -0.738091         3.286994
 H        -4.841150        -2.333740         2.680636
 H        -3.315959        -1.684572         2.983199
