19
Iteration:  3362
 C         0.506115        -1.354829        -0.571077
 C        -0.646271        -0.451408        -0.434701
 C        -1.567841         0.195283         0.010825
 C        -2.701918         1.123698         0.216447
 O        -2.392468         2.541290         0.480701
 C        -3.670923         0.765606         1.321466
 C        -4.389840        -0.579739         1.307156
 C        -4.878888        -1.119719         2.778773
 O        -4.451454        -1.434346         0.359625
 H         0.169851        -2.283754        -0.081199
 H         0.763872        -1.793304        -1.559508
 H         1.491154        -1.045094        -0.161360
 H        -3.166886         1.084567        -0.741532
 H        -1.493590         2.712949         0.197451
 H        -3.097473         0.746592         2.255963
 H        -4.368508         1.632477         1.309734
 H        -3.992848        -1.572913         3.278532
 H        -5.081336        -0.203754         3.376953
 H        -5.785885        -1.763198         2.644436
