19
Iteration:  3563charge 0 multiplicity 1
 C         0.269408        -1.607146        -0.349346
 C        -0.532930        -0.445432        -0.070667
 C        -1.253412         0.445014         0.354015
 C        -2.579761         1.064124         0.174998
 O        -2.662784         2.529252         0.082898
 C        -3.600875         0.800697         1.273955
 C        -4.379705        -0.521086         1.341829
 C        -4.309172        -1.510737         2.568916
 O        -4.924111        -0.999512         0.367565
 H        -0.508389        -2.463807        -0.533090
 H         0.912641        -1.553226        -1.265440
 H         0.884376        -2.094638         0.434171
 H        -2.996370         0.641109        -0.739601
 H        -2.389329         2.869017        -0.849226
 H        -3.055627         1.103631         2.178391
 H        -4.343746         1.633068         1.107006
 H        -3.291990        -1.912073         2.401629
 H        -4.356196        -0.909662         3.558631
 H        -5.100155        -2.298210         2.493488
