19
Iteration:  1407charge 0 multiplicity 1
 C         0.913688        -0.967521         0.032176
 C        -0.279175        -0.091070        -0.084020
 C        -1.340802         0.470507        -0.029281
 C        -2.671334         1.097421         0.208141
 O        -2.823107         2.484572         0.604821
 C        -3.385960         0.254120         1.390340
 C        -4.435859        -0.901102         1.076657
 C        -5.298079        -1.346026         2.281458
 O        -4.648554        -1.282982        -0.047647
 H         1.760393        -0.946770        -0.677964
 H         1.432599        -0.758591         1.058864
 H         0.539259        -2.085911         0.152437
 H        -3.321506         0.863740        -0.704209
 H        -2.254505         3.132686         0.038293
 H        -2.540630        -0.106846         2.048838
 H        -3.880090         1.020176         2.079758
 H        -4.725472        -1.935196         2.993155
 H        -5.500970        -0.549500         3.033389
 H        -6.259406        -1.876071         2.053187
