19
Iteration:  2356
 C         0.612911        -1.195903         0.281019
 C        -0.715279        -0.578198         0.028414
 C        -1.564409         0.279261        -0.076540
 C        -2.765939         1.127677         0.133337
 O        -2.525110         2.610878         0.038294
 C        -3.525515         0.490053         1.427787
 C        -4.385129        -0.717276         1.259016
 C        -3.976709        -1.911602         1.893678
 O        -5.317953        -0.553690         0.510758
 H         0.915348        -0.596508         1.134789
 H         0.618084        -2.216662         0.745015
 H         1.339611        -1.095860        -0.561179
 H        -3.525104         0.961364        -0.697759
 H        -1.651323         2.802825         0.506962
 H        -2.822721         0.546807         2.235079
 H        -4.221646         1.299645         1.754014
 H        -2.969953        -2.001268         1.426682
 H        -3.857267        -1.714584         3.001824
 H        -4.794507        -2.627246         1.810356
