19
Iteration:  2116
 C         0.491685        -1.160013         0.379928
 C        -0.712727        -0.497326         0.168568
 C        -1.691511         0.172453         0.079702
 C        -2.754121         1.113349         0.112977
 O        -2.320046         2.467827         0.357826
 C        -3.794687         0.802137         1.207678
 C        -4.370173        -0.627238         1.054237
 C        -3.594332        -1.898811         1.628978
 O        -5.514578        -0.693802         0.542579
 H         1.230331        -0.414870         0.584591
 H         0.429242        -1.945077         1.141837
 H         0.878260        -1.566672        -0.568559
 H        -3.300058         0.928367        -0.809397
 H        -1.304229         2.285024         0.322184
 H        -3.126089         0.772715         2.084154
 H        -4.582296         1.569619         1.274690
 H        -2.499760        -1.756149         1.713345
 H        -3.821690        -2.080934         2.704263
 H        -3.746502        -2.830772         1.080815
