19
Iteration:   317charge 0 multiplicity 1
 C         1.375028        -0.551408        -0.031012
 C        -0.063849        -0.160471         0.081461
 C        -1.232055         0.211282         0.125855
 C        -2.661974         0.538277         0.135864
 O        -2.836328         1.923228         0.151398
 C        -3.216627        -0.096882         1.357218
 C        -4.697127        -0.506861         1.229006
 C        -5.092127        -1.856152         2.007631
 O        -5.489305         0.175692         0.590200
 H         2.063024        -0.130636         0.720993
 H         1.370350        -1.652160         0.057845
 H         1.804906        -0.121595        -0.968297
 H        -3.054947         0.070291        -0.747024
 H        -2.601734         2.112522        -0.834743
 H        -2.543109        -0.738586         1.819284
 H        -3.442034         0.797673         2.000584
 H        -4.690849        -1.861915         3.021582
 H        -6.194868        -1.955412         2.200685
 H        -4.734895        -2.822329         1.513347
