19
Iteration:  1475charge 0 multiplicity 1
 C         0.893634        -0.809260        -0.140501
 C        -0.484416        -0.280666         0.121938
 C        -1.667300         0.121847         0.192983
 C        -2.789297         1.106218         0.276675
 O        -2.443048         2.461807         0.358209
 C        -3.707440         0.516014         1.423103
 C        -4.398790        -0.760855         1.124583
 C        -5.101005        -1.624982         2.239283
 O        -4.449783        -1.112004        -0.053143
 H         1.478509        -0.438350        -1.025356
 H         1.505509        -0.523890         0.769450
 H         0.788017        -1.957140        -0.158113
 H        -3.271228         1.206697        -0.674068
 H        -2.106931         2.632199         1.280120
 H        -3.141799         0.432307         2.390960
 H        -4.523793         1.274560         1.680779
 H        -4.665518        -1.275293         3.240198
 H        -6.158917        -1.350415         2.255116
 H        -4.820584        -2.640258         1.997789
