19
Iteration:  3918charge 0 multiplicity 1
 C         0.523186        -1.309555         0.414334
 C        -0.575576        -0.524431        -0.191536
 C        -1.560159         0.177709        -0.198300
 C        -2.761848         0.957637        -0.112260
 O        -2.352423         2.363023         0.093916
 C        -3.676766         0.745660         1.177883
 C        -4.433906        -0.581990         1.318950
 C        -3.618908        -1.840864         1.880732
 O        -5.577580        -0.415615         1.073581
 H         1.225616        -1.788708        -0.227311
 H         1.025821        -0.580903         1.071339
 H        -0.071510        -1.967041         1.079878
 H        -3.467800         0.829278        -1.080000
 H        -2.961665         2.946711        -0.453265
 H        -2.995060         0.922229         2.011104
 H        -4.406965         1.558121         0.964617
 H        -3.372689        -2.559889         1.057563
 H        -2.756761        -1.483636         2.445579
 H        -4.383417        -2.325982         2.497253
