19
Iteration:  2592
 C         0.247179        -1.581256        -0.170507
 C        -0.773074        -0.523196         0.140309
 C        -1.679474         0.324900        -0.012567
 C        -2.829585         1.256936         0.061247
 O        -2.407591         2.526973         0.471546
 C        -3.743469         0.837518         1.193578
 C        -4.227268        -0.597351         1.082906
 C        -3.832305        -1.478243         2.418094
 O        -4.939063        -1.046955         0.239591
 H         0.859233        -1.746100         0.710888
 H        -0.179752        -2.536313        -0.367793
 H         0.914198        -1.337738        -0.958394
 H        -3.360132         1.430438        -0.832753
 H        -1.771604         2.464528         1.159551
 H        -3.113604         0.937133         2.033909
 H        -4.585773         1.591571         1.257420
 H        -3.461210        -2.509933         2.273182
 H        -3.206826        -1.046737         3.286928
 H        -4.772032        -1.607688         3.004205
