19
Iteration:  1828charge 0 multiplicity 1
 C         0.543987        -1.248231        -0.080607
 C        -0.668341        -0.424425         0.034339
 C        -1.597367         0.273161         0.304162
 C        -2.690443         1.214382         0.324824
 O        -2.372918         2.555215         0.678775
 C        -3.937970         0.758315         1.132212
 C        -4.381292        -0.692469         0.956010
 C        -4.158974        -1.625219         2.253326
 O        -4.916343        -1.161344        -0.069745
 H         1.303618        -0.605386        -0.620275
 H         0.977284        -1.393478         0.906882
 H         0.546790        -2.123010        -0.679901
 H        -2.930743         1.263432        -0.772498
 H        -1.906886         2.625277         1.481666
 H        -3.663617         1.076674         2.153619
 H        -4.830753         1.247167         0.740538
 H        -3.600365        -0.990556         2.890096
 H        -5.180452        -1.741844         2.600840
 H        -3.678950        -2.544808         1.970200
