19
Iteration:  1470
 C         0.919522        -0.832551        -0.134793
 C        -0.509499        -0.255483         0.151083
 C        -1.666367         0.151464         0.138058
 C        -2.792838         1.053423         0.331157
 O        -2.451287         2.488404         0.363346
 C        -3.674934         0.470453         1.387304
 C        -4.422126        -0.743456         1.117870
 C        -5.108394        -1.570118         2.249958
 O        -4.443665        -1.114559        -0.052536
 H         1.486124        -0.473993        -0.983946
 H         1.472330        -0.494227         0.739627
 H         0.794114        -1.901616        -0.190549
 H        -3.384584         1.028160        -0.663348
 H        -2.173099         2.716584         1.294982
 H        -3.100184         0.200601         2.284417
 H        -4.466951         1.144074         1.685163
 H        -4.514671        -1.392614         3.122755
 H        -6.168524        -1.289554         2.298399
 H        -4.827372        -2.623141         2.047540
