19
Iteration:  3754charge 0 multiplicity 1
 C         0.439357        -1.483015        -0.007277
 C        -0.733784        -0.619333        -0.053442
 C        -1.563076         0.231705         0.160842
 C        -2.748172         1.121625        -0.062905
 O        -2.395417         2.461157         0.102447
 C        -3.664673         0.842704         1.094298
 C        -4.276883        -0.569203         1.323262
 C        -3.789108        -1.568008         2.276339
 O        -5.385040        -0.786239         0.746234
 H         0.689272        -2.249022        -0.730586
 H         1.376850        -0.859048         0.029087
 H         0.440148        -1.998416         1.020397
 H        -3.155089         1.037749        -0.990188
 H        -2.527346         2.915347        -0.694577
 H        -3.023408         1.071479         1.979057
 H        -4.423468         1.657407         1.046015
 H        -2.792956        -1.913923         2.154272
 H        -3.970813        -1.284625         3.274828
 H        -4.382580        -2.461265         2.080376
