19
Iteration:  3798charge 0 multiplicity 1
 C         0.399077        -1.684857        -0.126337
 C        -0.432722        -0.493679         0.314886
 C        -1.393572         0.269863         0.274039
 C        -2.697605         1.069741         0.213007
 O        -2.515893         2.409330        -0.180483
 C        -3.889784         0.899566         1.392196
 C        -4.482850        -0.484257         1.292709
 C        -3.515539        -1.498126         2.014090
 O        -5.461643        -0.737659         0.644697
 H        -0.090827        -1.910940        -1.089571
 H         1.453015        -1.452150        -0.407436
 H         0.213177        -2.614466         0.501766
 H        -3.193934         0.516708        -0.541153
 H        -3.100017         2.635957        -0.871176
 H        -3.429710         1.030718         2.392671
 H        -4.695698         1.672570         1.209177
 H        -2.715278        -1.687242         1.318193
 H        -3.045666        -1.169790         2.887007
 H        -3.889148        -2.505237         2.204344
