19
Iteration:  1384charge 0 multiplicity 1
 C         0.866271        -0.920895         0.056124
 C        -0.251545        -0.037189        -0.096245
 C        -1.284889         0.643360        -0.002858
 C        -2.646657         0.917582         0.179267
 O        -2.755296         2.379145         0.579571
 C        -3.410529         0.176918         1.470624
 C        -4.493531        -0.691508         1.039006
 C        -5.259278        -1.274347         2.219556
 O        -4.659313        -1.328141         0.029661
 H         1.595046        -0.859545        -0.799349
 H         1.524061        -0.874266         1.011452
 H         0.483927        -2.043640         0.049547
 H        -3.281313         0.598430        -0.717464
 H        -3.051661         2.902961        -0.123474
 H        -2.894864        -0.603642         2.111501
 H        -3.839270         0.903279         2.212720
 H        -4.760856        -2.168822         2.525852
 H        -5.323203        -0.750367         3.210444
 H        -6.314733        -1.502512         1.887308
