19
Iteration:  1351
 C         1.049643        -0.896509        -0.030184
 C        -0.234403        -0.048899         0.048114
 C        -1.324830         0.440487         0.128540
 C        -2.724673         0.934172         0.232234
 O        -2.836674         2.378382         0.398898
 C        -3.329513         0.137496         1.515978
 C        -4.364638        -0.818811         1.059439
 C        -5.383051        -1.289578         2.335412
 O        -4.681626        -1.118163        -0.092906
 H         1.564027        -0.619156        -0.996021
 H         1.833883        -0.692676         0.792759
 H         0.661078        -1.974298        -0.261337
 H        -3.327505         0.524337        -0.628792
 H        -3.715806         2.819289         0.191553
 H        -2.520275        -0.532035         1.917366
 H        -3.584215         0.799203         2.385624
 H        -5.695451        -2.268541         2.628937
 H        -5.075054        -0.645042         3.186002
 H        -6.367774        -0.893222         1.912761
