19
Iteration:  2186
 C         0.776423        -1.137611         0.169439
 C        -0.401546        -0.302704         0.049743
 C        -1.576335         0.125086         0.220259
 C        -2.693092         1.040825         0.066036
 O        -2.151117         2.374640         0.370336
 C        -3.968271         0.727011         1.035582
 C        -4.617855        -0.665515         1.093473
 C        -3.812734        -1.733030         1.831247
 O        -5.761790        -0.768970         0.643763
 H         1.644744        -0.501411         0.582812
 H         0.487011        -2.046856         0.718718
 H         1.236350        -1.316972        -0.823957
 H        -3.108583         1.174019        -0.988313
 H        -1.541503         2.472208         1.147067
 H        -3.366433         0.594096         1.990036
 H        -4.742983         1.513546         1.078353
 H        -3.668810        -1.646947         2.888642
 H        -4.290413        -2.656409         1.680279
 H        -2.827888        -1.733246         1.431094
