19
Iteration:  1039charge 0 multiplicity 1
 C         1.517327         0.125383         0.326113
 C         0.050248         0.149271         0.159352
 C        -1.182114         0.113569         0.194674
 C        -2.612630         0.143022        -0.074950
 O        -3.087924         1.529138         0.269937
 C        -3.213998        -0.910543         0.838322
 C        -4.713676        -0.635696         1.109977
 C        -5.096320        -0.449505         2.524606
 O        -5.484995        -0.388244         0.188885
 H         2.121598         0.872623        -0.228851
 H         1.750290         0.217007         1.413991
 H         1.931267        -0.877167         0.063071
 H        -2.640817        -0.115814        -1.116548
 H        -4.029360         1.563397         0.464525
 H        -3.238625        -1.835002         0.274322
 H        -2.544329        -1.018066         1.726513
 H        -4.269395         0.005787         2.989107
 H        -6.015751         0.137538         2.670159
 H        -5.186272        -1.457576         2.966165
