19
Iteration:  4263
 C         0.884917        -0.812301         0.131580
 C        -0.600815        -0.573585         0.144152
 C        -1.731331        -0.148467         0.028713
 C        -2.758126         0.817760        -0.013649
 O        -2.177535         2.222026        -0.154322
 C        -3.631028         0.753119         1.271807
 C        -4.479083        -0.463499         1.429057
 C        -4.044914        -1.963603         1.674312
 O        -5.710365        -0.315931         1.111900
 H         1.375775        -0.029852        -0.355095
 H         1.216070        -0.831608         1.174108
 H         1.130121        -1.762413        -0.383859
 H        -3.334333         0.756322        -0.895604
 H        -1.234446         2.150130         0.228995
 H        -2.881099         1.016244         1.982671
 H        -4.324943         1.626156         1.253228
 H        -3.121620        -2.045961         1.108403
 H        -3.737487        -1.930322         2.755172
 H        -4.865454        -2.567088         1.348397
