19
Iteration:  1525
 C         0.845762        -0.889818        -0.181524
 C        -0.499999        -0.312708         0.059192
 C        -1.591158         0.143494         0.364756
 C        -2.779281         0.989573         0.333523
 O        -2.367003         2.523746         0.513735
 C        -3.992158         0.714671         1.372114
 C        -4.512301        -0.746007         1.037707
 C        -4.894110        -1.654029         2.290676
 O        -4.435953        -1.132643        -0.117935
 H         1.106963        -0.398932        -1.095613
 H         1.636701        -0.701039         0.556445
 H         0.899496        -1.964172        -0.356438
 H        -3.184429         0.839437        -0.744492
 H        -1.477967         2.520334         0.214650
 H        -3.673235         0.745641         2.417619
 H        -4.795125         1.445702         1.341203
 H        -5.156078        -0.975841         3.086498
 H        -5.769665        -2.325518         2.098334
 H        -3.920597        -2.205011         2.341049
