19
Iteration:  2810
 C         0.501446        -1.326011        -0.436088
 C        -0.677404        -0.623953         0.049454
 C        -1.596612         0.180619         0.011158
 C        -2.678338         1.020546         0.226342
 O        -2.471284         2.461690         0.277019
 C        -3.515054         0.634032         1.387617
 C        -4.329474        -0.669848         1.205402
 C        -4.345269        -1.267354         2.546073
 O        -5.009159        -0.855764         0.294697
 H         1.286991        -1.873307         0.215203
 H         0.132116        -2.082646        -1.181951
 H         1.008956        -0.427326        -0.892612
 H        -3.273123         0.946499        -0.755398
 H        -1.602296         2.777524         0.749692
 H        -2.872200         0.744107         2.300010
 H        -4.366441         1.372558         1.451908
 H        -5.074100        -0.671870         3.050803
 H        -4.764795        -2.280265         2.477832
 H        -3.379871        -1.393822         3.065191
