19
Iteration:   753charge 0 multiplicity 1
 C         1.366828        -0.339418        -0.372691
 C        -0.034612         0.059192        -0.123393
 C        -1.177418         0.325441         0.201559
 C        -2.594121         0.535007         0.392685
 O        -2.849628         1.902773         0.842886
 C        -3.192069        -0.556822         1.316412
 C        -4.743074        -0.734322         1.100563
 C        -5.744121        -0.140993         2.071333
 O        -4.942438        -1.351387         0.034124
 H         2.059581         0.485936        -0.420144
 H         1.806028        -1.001422         0.389103
 H         1.476986        -0.944366        -1.304835
 H        -3.064857         0.507474        -0.606027
 H        -2.747215         1.901866         1.891599
 H        -2.811812        -1.540609         1.042655
 H        -2.944143        -0.305876         2.329289
 H        -5.219035         0.756581         2.476744
 H        -6.666910         0.260148         1.570124
 H        -6.068492        -0.569136         3.074146
