19
Iteration:  3195charge 0 multiplicity 1
 C         0.621585        -1.116100        -0.641907
 C        -0.551519        -0.271006        -0.334495
 C        -1.692325         0.140964        -0.215401
 C        -2.822482         0.972756         0.175064
 O        -2.313860         2.207924         0.549385
 C        -3.495671         0.548581         1.459530
 C        -4.432154        -0.675866         1.370761
 C        -5.109272        -0.772351         2.733170
 O        -4.413798        -1.354248         0.344515
 H         0.553406        -1.861484         0.147071
 H         0.558410        -1.642239        -1.583704
 H         1.641367        -0.713387        -0.583140
 H        -3.476052         1.152525        -0.738412
 H        -1.655466         2.455676        -0.052667
 H        -2.623512         0.098578         2.060784
 H        -3.880817         1.418619         1.966485
 H        -4.445631        -0.607622         3.624896
 H        -5.874421         0.018060         2.946106
 H        -5.628247        -1.740164         2.860778
