19
Iteration:  1722charge 0 multiplicity 1
 C         0.459888        -1.310023         0.058972
 C        -0.753587        -0.424174         0.006067
 C        -1.609342         0.401118         0.190256
 C        -2.836991         1.262503         0.349119
 O        -2.521511         2.654865         0.414305
 C        -3.743407         0.663761         1.535814
 C        -4.233625        -0.786568         1.049077
 C        -4.475915        -1.830660         2.162942
 O        -4.441624        -0.939663        -0.172326
 H         1.099867        -0.923637        -0.718797
 H         0.915386        -1.268696         1.070923
 H         0.174426        -2.355571        -0.228107
 H        -3.359546         1.181304        -0.585501
 H        -1.635164         2.809461         0.605071
 H        -3.184335         0.891544         2.453117
 H        -4.776154         1.077716         1.666708
 H        -4.176596        -2.761347         1.598691
 H        -4.027371        -1.600659         3.146756
 H        -5.565758        -2.006003         2.388785
