19
Iteration:   707
 C         1.311249        -0.355183        -0.521344
 C        -0.036828         0.007906        -0.135972
 C        -1.190959         0.258782         0.114252
 C        -2.573107         0.619850         0.484503
 O        -2.689813         1.958111         1.001036
 C        -3.258479        -0.340127         1.543427
 C        -4.743613        -0.799091         1.100448
 C        -5.879089        -0.266641         1.925945
 O        -4.876156        -1.389853         0.051786
 H         2.077579         0.446607        -0.413799
 H         1.639406        -1.178196         0.173100
 H         1.341899        -0.831455        -1.508448
 H        -3.216414         0.334529        -0.368851
 H        -2.405164         2.483631         0.185077
 H        -2.568648        -1.248166         1.480473
 H        -3.285095         0.096757         2.524997
 H        -5.644402         0.726178         2.425505
 H        -6.748965        -0.292215         1.269897
 H        -5.953275        -0.985707         2.780178
