19
Iteration:  2730
 C         0.216034        -1.548163        -0.192582
 C        -0.768079        -0.478485        -0.167527
 C        -1.576946         0.345407         0.114869
 C        -2.747487         1.228975         0.234929
 O        -2.455082         2.626394         0.082431
 C        -3.563487         0.750866         1.488687
 C        -4.212739        -0.639040         1.285160
 C        -4.295915        -1.737661         2.480892
 O        -4.735852        -0.847486         0.248184
 H         0.477142        -1.646222         0.886475
 H        -0.259342        -2.500728        -0.546269
 H         1.145588        -1.382699        -0.790212
 H        -3.431802         1.042173        -0.673746
 H        -1.482244         2.842808         0.325552
 H        -2.967777         0.727476         2.480294
 H        -4.407828         1.424977         1.573316
 H        -3.854182        -1.391601         3.418974
 H        -5.333735        -1.890355         2.480610
 H        -3.716944        -2.548810         2.120488
