19
Iteration:    10charge 0 multiplicity 1
 C         1.504593         0.212975         0.035842
 C         0.055688         0.046582         0.080049
 C        -1.148214        -0.184357         0.042708
 C        -2.649962        -0.278367         0.084090
 O        -3.276909         0.751415        -0.669934
 C        -3.116453        -0.164454         1.490656
 C        -4.612465        -0.157741         1.516221
 C        -5.447728        -1.202876         0.858445
 O        -5.148145         0.691762         2.225723
 H         1.989914         0.227950         1.036798
 H         1.815691        -0.666739        -0.536696
 H         1.829491         1.009389        -0.593016
 H        -3.011126        -1.240485        -0.192100
 H        -2.578751         1.392393        -0.879489
 H        -2.728170        -1.060267         2.164766
 H        -2.900281         0.708433         2.049927
 H        -4.957337        -2.147572         1.287663
 H        -6.478989        -1.298041         1.276726
 H        -5.502116        -1.087857        -0.245076
