19
Iteration:  1516charge 0 multiplicity 1
 C         0.818388        -0.836151        -0.169558
 C        -0.516611        -0.350063         0.040524
 C        -1.547786         0.202950         0.343442
 C        -2.716969         1.087537         0.324331
 O        -2.364281         2.406844         0.459336
 C        -3.969312         0.664751         1.427658
 C        -4.554402        -0.728214         1.089141
 C        -4.923121        -1.615687         2.214914
 O        -4.420518        -1.133892        -0.064789
 H         1.242848        -0.408546        -1.073323
 H         1.452371        -0.446905         0.663764
 H         0.709619        -1.943391        -0.390679
 H        -3.329031         0.852382        -0.638666
 H        -1.432083         2.430598         0.380835
 H        -3.748322         0.811789         2.498769
 H        -4.857274         1.244747         1.115366
 H        -4.911086        -1.299557         3.243156
 H        -5.782988        -2.179929         1.841195
 H        -4.126281        -2.349398         2.310151
