19
Iteration:   661
 C         1.213207        -0.393224        -0.602549
 C        -0.126035        -0.099476        -0.127545
 C        -1.238449         0.154932         0.259632
 C        -2.559907         0.663918         0.536413
 O        -2.577395         2.000475         0.921143
 C        -3.282178        -0.181148         1.570305
 C        -4.595902        -0.680817         1.045032
 C        -5.871916        -0.405439         1.907197
 O        -4.829057        -1.404089         0.044389
 H         1.641839         0.647981        -0.334010
 H         1.858196        -1.187078        -0.157889
 H         1.173851        -0.461105        -1.700615
 H        -3.146217         0.538059        -0.420633
 H        -3.490980         2.091204         1.341040
 H        -2.805219        -1.191065         1.591765
 H        -3.156879         0.403481         2.548903
 H        -6.119250         0.681187         1.793977
 H        -6.592050        -1.055817         1.418640
 H        -5.581784        -0.565990         2.932322
