19
Iteration:  2022
 C         0.318459        -1.539335         0.304553
 C        -0.605416        -0.488354         0.352350
 C        -1.359527         0.466326         0.227765
 C        -2.727301         1.173571         0.194255
 O        -2.794082         2.666742         0.231540
 C        -3.554229         0.778741         1.375276
 C        -4.309274        -0.644513         1.051973
 C        -3.764779        -1.936809         1.662917
 O        -5.261990        -0.782641         0.306110
 H         1.291586        -0.981969         0.261066
 H         0.284155        -2.232659         1.141686
 H         0.410664        -2.027415        -0.650755
 H        -3.224913         1.003487        -0.737053
 H        -1.991343         3.012598        -0.225120
 H        -3.030476         0.863724         2.333279
 H        -4.456116         1.384239         1.370676
 H        -3.681214        -2.773867         1.000157
 H        -2.710924        -1.738407         1.765854
 H        -4.269072        -2.164614         2.627095
