19
Iteration:  1163
 C         1.557552        -0.051873         0.163247
 C         0.047301        -0.005621         0.026867
 C        -1.177875        -0.022426        -0.014456
 C        -2.707829         0.393993        -0.000326
 O        -2.838102         1.843411         0.102762
 C        -3.229025        -0.240969         1.303272
 C        -4.782491        -0.595729         1.305115
 C        -5.559707        -1.095977         2.489488
 O        -5.236712        -0.564249         0.143349
 H         2.002388         0.577398        -0.686995
 H         1.978453         0.346912         1.104546
 H         2.029567        -1.014698        -0.052364
 H        -3.242894        -0.034922        -0.871942
 H        -2.373440         2.134900         0.872710
 H        -2.857956        -1.309535         1.419709
 H        -3.069275         0.306542         2.225699
 H        -6.121214        -0.391594         3.219158
 H        -6.279282        -1.727009         1.995884
 H        -4.933842        -1.753752         3.047484
