19
Iteration:   670
 C         1.220397        -0.345234        -0.588551
 C        -0.118096        -0.149608        -0.132534
 C        -1.217824         0.201817         0.248939
 C        -2.562110         0.616656         0.482455
 O        -2.617584         2.022175         0.903383
 C        -3.265378        -0.253467         1.527677
 C        -4.667083        -0.684806         1.069718
 C        -5.871449        -0.354965         1.870523
 O        -4.798044        -1.380492         0.099115
 H         1.851216         0.577836        -0.438759
 H         1.691743        -1.180554        -0.042729
 H         1.288510        -0.499098        -1.688336
 H        -3.014536         0.673647        -0.524090
 H        -3.059665         2.096925         1.790246
 H        -2.658275        -1.134390         1.687285
 H        -3.216253         0.191979         2.608118
 H        -6.296866         0.602732         1.995511
 H        -6.697231        -0.989298         1.545694
 H        -5.718804        -0.820082         2.807610
