19
Iteration:  1294charge 0 multiplicity 1
 C         1.250775        -0.620471        -0.186387
 C        -0.158626        -0.135381         0.027346
 C        -1.230507         0.346469         0.319121
 C        -2.681511         0.723297         0.349693
 O        -2.767908         2.174583         0.221170
 C        -3.456623         0.128571         1.544654
 C        -4.574659        -0.675000         1.167902
 C        -5.511771        -1.285612         2.276137
 O        -4.771523        -0.924704        -0.020224
 H         1.487216        -0.094330        -1.154911
 H         1.868804        -0.351083         0.712473
 H         1.285998        -1.720983        -0.321568
 H        -2.961204         0.184259        -0.571584
 H        -3.492930         2.364109        -0.354166
 H        -2.792981        -0.552583         2.143686
 H        -3.774141         0.939450         2.190558
 H        -6.196772        -2.025145         1.820353
 H        -4.764274        -1.787454         2.889070
 H        -5.938211        -0.554445         2.952712
