19
Iteration:  1746charge 0 multiplicity 1
 C         0.415216        -1.296214        -0.043031
 C        -0.551652        -0.262348         0.129624
 C        -1.627699         0.329610         0.232730
 C        -2.812717         1.152799         0.285759
 O        -2.515952         2.588034         0.494890
 C        -3.796351         0.741098         1.428857
 C        -4.313858        -0.681713         1.057886
 C        -4.357089        -1.720491         2.101605
 O        -4.537184        -1.097457        -0.102217
 H         1.059932        -1.110766        -0.836039
 H         0.803337        -1.551102         0.948558
 H        -0.325961        -2.080136        -0.356069
 H        -3.173088         1.168913        -0.739791
 H        -1.682768         2.647059         1.039468
 H        -3.283400         0.809378         2.409018
 H        -4.648008         1.423513         1.556505
 H        -3.865750        -2.630405         1.639860
 H        -4.321697        -1.422813         3.167825
 H        -5.442663        -2.061344         2.068771
