19
Iteration:  1901charge 0 multiplicity 1
 C         0.491564        -1.145530         0.118159
 C        -0.823376        -0.558044         0.150102
 C        -1.763395         0.176450         0.205728
 C        -2.863423         1.280826         0.233940
 O        -2.233222         2.463363         0.616018
 C        -3.956939         0.755150         1.238295
 C        -4.312089        -0.780522         0.946708
 C        -3.835328        -1.596761         2.106480
 O        -5.012817        -0.989136        -0.045724
 H         1.205467        -0.395501        -0.217134
 H         0.768477        -1.423294         1.137158
 H         0.702840        -1.914303        -0.628080
 H        -3.308765         1.359163        -0.763650
 H        -1.318256         2.239595         0.641776
 H        -3.522127         0.797142         2.229233
 H        -4.697456         1.481348         1.081706
 H        -4.533347        -1.187440         2.879316
 H        -4.133267        -2.644064         1.758684
 H        -2.757172        -1.297753         2.271590
