19
Iteration:  1126
 C         1.514388        -0.069873         0.268780
 C         0.039591         0.080192        -0.001878
 C        -1.178130         0.297295        -0.010447
 C        -2.610456         0.262927         0.065532
 O        -3.002168         1.592387         0.165383
 C        -3.215652        -0.517767         1.288291
 C        -4.710983        -0.699411         1.111757
 C        -5.361540        -0.874916         2.530720
 O        -5.392885        -0.406996         0.114426
 H         1.928156         0.616104        -0.483394
 H         1.863118         0.329823         1.231117
 H         1.867529        -1.090527         0.049665
 H        -3.004373        -0.152873        -0.830066
 H        -2.237545         2.045962        -0.094322
 H        -2.695662        -1.459658         1.350267
 H        -2.881187         0.011584         2.189442
 H        -5.067268        -0.147470         3.217444
 H        -6.467030        -0.835408         2.425360
 H        -5.013844        -1.851268         2.927212
