19
Iteration:  3405charge 0 multiplicity 1
 C         0.368342        -1.179431        -0.322081
 C        -0.807527        -0.460786        -0.143650
 C        -1.860841         0.100074        -0.376537
 C        -2.812410         1.096607         0.057455
 O        -2.149973         2.308941         0.545582
 C        -3.648422         0.758477         1.370744
 C        -4.233701        -0.648049         1.355895
 C        -4.672335        -1.103465         2.720752
 O        -4.451821        -1.262331         0.254570
 H         0.199992        -2.223352        -0.077652
 H         0.568155        -1.106955        -1.413317
 H         1.247061        -0.701098         0.137540
 H        -3.573455         1.349348        -0.707551
 H        -1.487639         2.603005        -0.152021
 H        -2.886299         0.847964         2.157380
 H        -4.369638         1.518900         1.562825
 H        -3.753969        -1.315868         3.356048
 H        -5.219340        -0.330138         3.340918
 H        -5.348602        -1.985253         2.551566
