19
Iteration:  3418
 C         0.419669        -1.185739        -0.287188
 C        -0.888654        -0.502446        -0.174464
 C        -1.992671         0.095447        -0.317365
 C        -2.854429         1.223175         0.076805
 O        -2.025289         2.379691         0.465582
 C        -3.585543         0.714939         1.328754
 C        -4.332761        -0.577038         1.341257
 C        -4.649195        -1.225221         2.657340
 O        -4.454311        -1.284627         0.341201
 H         0.513349        -2.252969         0.106845
 H         0.833264        -1.109159        -1.339475
 H         1.097588        -0.699815         0.448773
 H        -3.472550         1.506845        -0.733560
 H        -1.641914         2.712740        -0.338895
 H        -2.915736         0.589206         2.160413
 H        -4.323141         1.502537         1.728142
 H        -3.660267        -1.416777         3.171283
 H        -5.304701        -0.480123         3.222033
 H        -5.107148        -2.223061         2.671037
