19
Iteration:  2560
 C         0.321262        -1.524966        -0.227794
 C        -0.835371        -0.701249         0.086957
 C        -1.618818         0.283143         0.178159
 C        -2.737168         1.227740         0.216318
 O        -2.388648         2.630151         0.374088
 C        -3.904351         0.920639         1.198202
 C        -4.303125        -0.582719         1.134045
 C        -3.770691        -1.543085         2.356561
 O        -4.982286        -1.073196         0.235239
 H         0.897029        -1.506201         0.690630
 H         0.026029        -2.531592        -0.420933
 H         0.938189        -1.178709        -1.029547
 H        -3.178655         1.196228        -0.760035
 H        -1.733921         2.773300         1.105334
 H        -3.535288         1.106785         2.177788
 H        -4.689325         1.638768         0.783164
 H        -3.981990        -2.612689         2.161604
 H        -2.630352        -1.334520         2.431182
 H        -4.281470        -1.229228         3.310609
