19
Iteration:  2736
 C         0.241255        -1.558409        -0.185019
 C        -0.722811        -0.490685        -0.240883
 C        -1.536494         0.394497         0.116637
 C        -2.753123         1.216127         0.297836
 O        -2.435029         2.621109         0.058427
 C        -3.625033         0.821673         1.476444
 C        -4.166880        -0.670617         1.296565
 C        -4.334463        -1.734217         2.476645
 O        -4.775543        -0.861064         0.265765
 H         0.528968        -1.782175         0.831479
 H        -0.316373        -2.407059        -0.540457
 H         1.108308        -1.366670        -0.788293
 H        -3.349395         0.961738        -0.530312
 H        -1.570327         2.812164         0.421121
 H        -3.003742         0.712614         2.301811
 H        -4.507164         1.506496         1.652370
 H        -3.886989        -1.390644         3.451317
 H        -5.446384        -2.077695         2.422175
 H        -3.684845        -2.665227         2.230149
