19
Iteration:  2403charge 0 multiplicity 1
 C         0.381116        -1.265223         0.273773
 C        -0.544583        -0.200689         0.047432
 C        -1.605559         0.261015        -0.193047
 C        -2.844726         0.998711        -0.019111
 O        -2.403632         2.486121         0.176117
 C        -3.646888         0.583013         1.409990
 C        -4.297994        -0.589197         1.256083
 C        -3.900234        -1.857474         2.034247
 O        -5.246545        -0.666475         0.487496
 H         0.896875        -1.296447         1.186396
 H        -0.240276        -2.127731         0.301082
 H         0.975858        -1.381582        -0.594536
 H        -3.529206         1.016029        -0.804615
 H        -1.523434         2.425936         0.729977
 H        -2.917970         0.567322         2.213807
 H        -4.362956         1.255127         1.754254
 H        -2.975979        -1.702792         2.576216
 H        -4.733818        -2.231277         2.610031
 H        -3.966395        -2.592590         1.201291
