19
Iteration:   185charge 0 multiplicity 1
 C         1.527001        -0.060714         0.073292
 C         0.075577        -0.132770         0.050672
 C        -1.136345         0.031825         0.067251
 C        -2.612876         0.208696        -0.002577
 O        -2.959751         1.520885        -0.291739
 C        -3.214741        -0.424421         1.327294
 C        -4.710553        -0.415721         1.390429
 C        -5.459409        -1.739810         1.687141
 O        -5.322717         0.657741         1.309953
 H         1.964307         0.283684         1.042594
 H         1.949411        -1.065531        -0.147897
 H         1.894332         0.550982        -0.766386
 H        -2.829506        -0.498810        -0.900766
 H        -3.919875         1.543792        -0.231139
 H        -2.811668        -1.458539         1.479612
 H        -2.759708         0.237001         2.098697
 H        -5.308561        -1.722964         2.825542
 H        -6.489104        -1.415762         1.489653
 H        -5.082764        -2.702101         1.227540
