19
Iteration:  4359charge 0 multiplicity 1
 C         0.499526        -0.290257        -1.270629
 C        -0.681265         0.030405        -0.484080
 C        -1.672114         0.039505         0.235038
 C        -2.941560         0.173714         1.041949
 O        -2.661851         0.717782         2.494898
 C        -3.860822         1.179233         0.413036
 C        -4.367382         0.846906        -1.076612
 C        -3.529346         1.468193        -2.164893
 O        -4.808326         2.051931        -1.724534
 H         0.535445         0.408938        -2.236470
 H         1.421492        -0.007795        -0.707074
 H         0.558165        -1.346756        -1.572304
 H        -3.342073        -0.767383         1.376011
 H        -1.857708         1.320263         2.555724
 H        -4.780844         1.216199         0.988572
 H        -3.314989         2.093881         0.244148
 H        -4.934198        -0.018776        -0.999273
 H        -2.606072         1.996838        -1.870321
 H        -3.508702         1.016903        -3.145735
