19
Iteration:  3877
 C         1.211776        -0.316909        -0.375460
 C        -0.133293         0.012197         0.020932
 C        -1.330172        -0.091107         0.203900
 C        -2.689177         0.200299         0.468453
 O        -2.834717         0.303396         1.932570
 C        -3.181950         1.461054        -0.220887
 C        -4.563146         1.146320        -0.851359
 C        -4.879129         1.304768        -2.297425
 O        -5.419408         2.271159        -1.328038
 H         1.133564        -1.242814        -1.053917
 H         1.752966         0.554392        -0.956282
 H         1.695579        -0.567592         0.569663
 H        -3.102943        -0.780997         0.006190
 H        -2.131052         0.949363         2.102456
 H        -3.230751         2.259859         0.461893
 H        -2.351292         1.902757        -0.800798
 H        -5.257843         0.424982        -0.332581
 H        -4.051682         1.719311        -2.898539
 H        -5.613664         0.586375        -2.863304
