19
Iteration:  4197charge 0 multiplicity 1
 C         0.758087         0.048028        -0.991695
 C        -0.502971        -0.028271        -0.311515
 C        -1.578682        -0.032052         0.273626
 C        -2.917504         0.172510         0.839180
 O        -2.704421         0.269073         2.269156
 C        -3.562175         1.584885         0.291628
 C        -4.590006         1.337942        -0.749615
 C        -4.140634         0.831908        -2.096805
 O        -4.723618         2.182569        -1.945709
 H         0.577317         0.286005        -2.050113
 H         1.333472         0.850540        -0.665534
 H         1.346663        -0.822222        -0.931607
 H        -3.664986        -0.599520         0.583140
 H        -2.206982        -0.526067         2.614454
 H        -4.127804         2.142616         1.108185
 H        -2.680734         2.054195        -0.189948
 H        -5.635967         1.017705        -0.427208
 H        -3.091053         0.827013        -2.138254
 H        -4.575589         0.163106        -2.860617
