19
Iteration:   149
 C         1.335208        -0.040021         0.442414
 C        -0.029520         0.155535        -0.032299
 C        -1.197061        -0.136965        -0.289129
 C        -2.680180         0.001070        -0.421571
 O        -3.230678        -0.423907         0.838260
 C        -2.946959         1.536172        -0.601898
 C        -4.396315         1.761804        -0.225174
 C        -5.344268         1.056529        -1.073744
 O        -5.125603         2.543283        -1.084396
 H         1.507726        -1.126046         0.606959
 H         2.087483         0.366364        -0.283606
 H         1.502004         0.465352         1.411858
 H        -3.158530        -0.548396        -1.310380
 H        -4.182097        -0.711519         0.614269
 H        -2.208188         2.217177        -0.043421
 H        -2.831621         1.895866        -1.715478
 H        -4.562954         1.785519         0.937978
 H        -4.989060         0.506475        -1.999037
 H        -6.346601         0.821866        -0.615364
