19
Iteration:  3099
 C         1.191352        -0.230812        -0.587463
 C        -0.240292         0.035945        -0.214311
 C        -1.459623         0.306657        -0.010498
 C        -2.765595         0.160211         0.631173
 O        -2.587106        -0.038759         2.056035
 C        -3.806219         1.294760         0.362019
 C        -4.620425         1.103505        -0.928726
 C        -4.274189         1.596787        -2.236549
 O        -5.310518         2.250237        -1.589499
 H         1.747812         0.633334        -0.248127
 H         1.552797        -1.084793         0.072558
 H         1.144644        -0.347529        -1.653741
 H        -3.346820        -0.716155         0.193187
 H        -1.864614        -0.744497         2.067319
 H        -4.531723         1.171926         1.239282
 H        -3.287328         2.246973         0.437643
 H        -5.389610         0.307597        -0.871023
 H        -3.491543         2.444350        -2.354566
 H        -4.465230         1.098660        -3.261515
