19
Iteration:  2171charge 0 multiplicity 1
 C         1.471304        -0.235298         0.420763
 C         0.067715        -0.129659         0.053127
 C        -1.097609         0.045573        -0.088626
 C        -2.503227         0.265522        -0.164483
 O        -3.030049        -0.095801         1.101126
 C        -2.995595         1.639253        -0.709916
 C        -4.546845         1.724059        -0.446965
 C        -5.625142         0.913185        -1.169264
 O        -5.421852         2.237442        -1.457297
 H         1.482651        -0.923579         1.340332
 H         2.089645        -0.817836        -0.375043
 H         2.012212         0.777467         0.440194
 H        -2.984909        -0.400805        -0.833631
 H        -2.805318         0.699774         1.697472
 H        -2.562919         2.410009        -0.121697
 H        -2.602625         1.875812        -1.734632
 H        -4.811017         2.041172         0.556395
 H        -5.246726         0.366679        -2.035628
 H        -6.588902         0.619054        -0.727756
